/*--------------------------------*- C++ -*----------------------------------*\
  =========                 |
  \\      /  F ield         | OpenFOAM: The Open Source CFD Toolbox
   \\    /   O peration     | Website:  https://openfoam.org
    \\  /    A nd           | Version:  10
     \\/     M anipulation  |
\*---------------------------------------------------------------------------*/
FoamFile
{
    format      ascii;
    class       featureEdgeMesh;
    location    "constant/triSurface";
    object      outlet.eMesh;
}
// * * * * * * * * * * * * * * * * * * * * * * * * * * * * * * * * * * * * * //


// points:

3232
(
(-0.262023 1.08428 0.00225891)
(-0.262023 1.08428 -0.00225891)
(-0.216843 1.08428 -0.00225891)
(-0.216843 1.08428 0.00225891)
(0.00225891 1.08428 0.262023)
(-0.00225891 1.08428 0.262023)
(-0.00225891 1.08428 0.216843)
(0.00225891 1.08428 0.216843)
(-0.00225891 1.08428 -0.262023)
(0.00225891 1.08428 -0.262023)
(0.00225891 1.08428 -0.216843)
(-0.00225891 1.08428 -0.216843)
(0.262023 1.08428 -0.00225891)
(0.262023 1.08428 0.00225891)
(0.216843 1.08428 0.00225891)
(0.216843 1.08428 -0.00225891)
(-6.63927e-17 1.08428 0.271069)
(0.000677476 1.08428 0.271068)
(0.00135495 1.08428 0.271065)
(0.00203241 1.08428 0.271061)
(0.00270986 1.08428 0.271055)
(0.00338729 1.08428 0.271048)
(0.00406471 1.08428 0.271038)
(0.00474209 1.08428 0.271027)
(0.00541945 1.08428 0.271015)
(0.00609677 1.08428 0.271)
(0.00677406 1.08428 0.270984)
(0.0074513 1.08428 0.270966)
(0.0081285 1.08428 0.270947)
(0.00880564 1.08428 0.270926)
(0.00948273 1.08428 0.270903)
(0.0101598 1.08428 0.270878)
(0.0108367 1.08428 0.270852)
(0.0115136 1.08428 0.270824)
(0.0121905 1.08428 0.270795)
(0.0128672 1.08428 0.270763)
(0.0135439 1.08428 0.27073)
(0.0142205 1.08428 0.270696)
(0.014897 1.08428 0.270659)
(0.0155734 1.08428 0.270621)
(0.0162497 1.08428 0.270581)
(0.0169259 1.08428 0.27054)
(0.017602 1.08428 0.270497)
(0.018278 1.08428 0.270452)
(0.0189539 1.08428 0.270405)
(0.0196296 1.08428 0.270357)
(0.0203052 1.08428 0.270307)
(0.0209808 1.08428 0.270256)
(0.0216561 1.08428 0.270202)
(0.0223314 1.08428 0.270147)
(0.0230065 1.08428 0.270091)
(0.0236814 1.08428 0.270032)
(0.0243562 1.08428 0.269972)
(0.0250309 1.08428 0.269911)
(0.0257054 1.08428 0.269847)
(0.0263798 1.08428 0.269782)
(0.0270539 1.08428 0.269715)
(0.0277279 1.08428 0.269647)
(0.0284018 1.08428 0.269577)
(0.0290754 1.08428 0.269505)
(0.0297489 1.08428 0.269431)
(0.0304222 1.08428 0.269356)
(0.0310953 1.08428 0.269279)
(0.0317682 1.08428 0.269201)
(0.0324409 1.08428 0.269121)
(0.0331134 1.08428 0.269039)
(0.0337857 1.08428 0.268955)
(0.0344578 1.08428 0.26887)
(0.0351297 1.08428 0.268783)
(0.0358013 1.08428 0.268694)
(0.0364728 1.08428 0.268604)
(0.037144 1.08428 0.268512)
(0.0378149 1.08428 0.268418)
(0.0384857 1.08428 0.268323)
(0.0391562 1.08428 0.268226)
(0.0398264 1.08428 0.268127)
(0.0404964 1.08428 0.268027)
(0.0411661 1.08428 0.267925)
(0.0418356 1.08428 0.267821)
(0.0425049 1.08428 0.267716)
(0.0431738 1.08428 0.267608)
(0.0438425 1.08428 0.2675)
(0.0445109 1.08428 0.267389)
(0.0451791 1.08428 0.267277)
(0.0458469 1.08428 0.267163)
(0.0465145 1.08428 0.267048)
(0.0471818 1.08428 0.266931)
(0.0478488 1.08428 0.266812)
(0.0485155 1.08428 0.266692)
(0.0491818 1.08428 0.26657)
(0.0498479 1.08428 0.266446)
(0.0505137 1.08428 0.266321)
(0.0511791 1.08428 0.266194)
(0.0518443 1.08428 0.266065)
(0.0525091 1.08428 0.265934)
(0.0531736 1.08428 0.265802)
(0.0538377 1.08428 0.265669)
(0.0545015 1.08428 0.265533)
(0.055165 1.08428 0.265396)
(0.0558281 1.08428 0.265257)
(0.0564909 1.08428 0.265117)
(0.0571533 1.08428 0.264975)
(0.0578154 1.08428 0.264831)
(0.0584771 1.08428 0.264686)
(0.0591384 1.08428 0.264539)
(0.0597994 1.08428 0.26439)
(0.06046 1.08428 0.26424)
(0.0611202 1.08428 0.264088)
(0.0617801 1.08428 0.263935)
(0.0624395 1.08428 0.263779)
(0.0630986 1.08428 0.263623)
(0.0637572 1.08428 0.263464)
(0.0644155 1.08428 0.263304)
(0.0650734 1.08428 0.263142)
(0.0657308 1.08428 0.262979)
(0.0663879 1.08428 0.262814)
(0.0670445 1.08428 0.262647)
(0.0677008 1.08428 0.262478)
(0.0683565 1.08428 0.262308)
(0.0690119 1.08428 0.262137)
(0.0696668 1.08428 0.261963)
(0.0703214 1.08428 0.261788)
(0.0709754 1.08428 0.261612)
(0.071629 1.08428 0.261434)
(0.0722822 1.08428 0.261254)
(0.0729349 1.08428 0.261072)
(0.0735872 1.08428 0.260889)
(0.074239 1.08428 0.260704)
(0.0748903 1.08428 0.260518)
(0.0755412 1.08428 0.26033)
(0.0761916 1.08428 0.260141)
(0.0768415 1.08428 0.259949)
(0.077491 1.08428 0.259757)
(0.0781399 1.08428 0.259562)
(0.0787884 1.08428 0.259366)
(0.0794364 1.08428 0.259168)
(0.0800839 1.08428 0.258969)
(0.0807309 1.08428 0.258768)
(0.0813773 1.08428 0.258565)
(0.0820233 1.08428 0.258361)
(0.0826688 1.08428 0.258155)
(0.0833137 1.08428 0.257948)
(0.0839581 1.08428 0.257739)
(0.084602 1.08428 0.257528)
(0.0852454 1.08428 0.257316)
(0.0858882 1.08428 0.257102)
(0.0865305 1.08428 0.256887)
(0.0871723 1.08428 0.25667)
(0.0878135 1.08428 0.256451)
(0.0884542 1.08428 0.256231)
(0.0890943 1.08428 0.256009)
(0.0897339 1.08428 0.255785)
(0.0903729 1.08428 0.25556)
(0.0910113 1.08428 0.255334)
(0.0916492 1.08428 0.255105)
(0.0922864 1.08428 0.254876)
(0.0929232 1.08428 0.254644)
(0.0935593 1.08428 0.254411)
(0.0941949 1.08428 0.254176)
(0.0948298 1.08428 0.25394)
(0.0954642 1.08428 0.253702)
(0.096098 1.08428 0.253463)
(0.0967311 1.08428 0.253222)
(0.0973637 1.08428 0.252979)
(0.0979957 1.08428 0.252735)
(0.098627 1.08428 0.25249)
(0.0992577 1.08428 0.252242)
(0.0998878 1.08428 0.251994)
(0.100517 1.08428 0.251743)
(0.101146 1.08428 0.251491)
(0.101774 1.08428 0.251237)
(0.102402 1.08428 0.250982)
(0.103029 1.08428 0.250726)
(0.103655 1.08428 0.250467)
(0.104281 1.08428 0.250208)
(0.104906 1.08428 0.249946)
(0.10553 1.08428 0.249683)
(0.106154 1.08428 0.249418)
(0.106777 1.08428 0.249152)
(0.107399 1.08428 0.248885)
(0.108021 1.08428 0.248616)
(0.108642 1.08428 0.248345)
(0.109263 1.08428 0.248073)
(0.109882 1.08428 0.247799)
(0.110501 1.08428 0.247523)
(0.111119 1.08428 0.247246)
(0.111737 1.08428 0.246968)
(0.112354 1.08428 0.246688)
(0.11297 1.08428 0.246406)
(0.113586 1.08428 0.246123)
(0.1142 1.08428 0.245838)
(0.114814 1.08428 0.245552)
(0.115428 1.08428 0.245265)
(0.11604 1.08428 0.244975)
(0.116652 1.08428 0.244685)
(0.117263 1.08428 0.244392)
(0.117874 1.08428 0.244098)
(0.118484 1.08428 0.243803)
(0.119093 1.08428 0.243506)
(0.119701 1.08428 0.243208)
(0.120308 1.08428 0.242908)
(0.120915 1.08428 0.242606)
(0.121521 1.08428 0.242303)
(0.122126 1.08428 0.241999)
(0.122731 1.08428 0.241693)
(0.123334 1.08428 0.241386)
(0.123937 1.08428 0.241076)
(0.124539 1.08428 0.240766)
(0.125141 1.08428 0.240454)
(0.125741 1.08428 0.24014)
(0.126341 1.08428 0.239826)
(0.12694 1.08428 0.239509)
(0.127538 1.08428 0.239191)
(0.128136 1.08428 0.238871)
(0.128732 1.08428 0.23855)
(0.129328 1.08428 0.238228)
(0.129923 1.08428 0.237904)
(0.130517 1.08428 0.237578)
(0.131111 1.08428 0.237252)
(0.131703 1.08428 0.236923)
(0.132295 1.08428 0.236593)
(0.132886 1.08428 0.236262)
(0.133476 1.08428 0.235929)
(0.134065 1.08428 0.235595)
(0.134653 1.08428 0.235259)
(0.135241 1.08428 0.234922)
(0.135828 1.08428 0.234583)
(0.136413 1.08428 0.234243)
(0.136999 1.08428 0.233901)
(0.137583 1.08428 0.233558)
(0.138166 1.08428 0.233213)
(0.138748 1.08428 0.232867)
(0.13933 1.08428 0.23252)
(0.139911 1.08428 0.232171)
(0.140491 1.08428 0.23182)
(0.141069 1.08428 0.231469)
(0.141648 1.08428 0.231115)
(0.142225 1.08428 0.23076)
(0.142801 1.08428 0.230404)
(0.143376 1.08428 0.230047)
(0.143951 1.08428 0.229688)
(0.144524 1.08428 0.229327)
(0.145097 1.08428 0.228965)
(0.145669 1.08428 0.228602)
(0.14624 1.08428 0.228237)
(0.14681 1.08428 0.227871)
(0.147379 1.08428 0.227503)
(0.147947 1.08428 0.227134)
(0.148514 1.08428 0.226764)
(0.149081 1.08428 0.226392)
(0.149646 1.08428 0.226019)
(0.15021 1.08428 0.225644)
(0.150774 1.08428 0.225268)
(0.151336 1.08428 0.22489)
(0.151898 1.08428 0.224511)
(0.152459 1.08428 0.224131)
(0.153018 1.08428 0.223749)
(0.153577 1.08428 0.223366)
(0.154135 1.08428 0.222982)
(0.154692 1.08428 0.222596)
(0.155247 1.08428 0.222208)
(0.155802 1.08428 0.22182)
(0.156356 1.08428 0.22143)
(0.156909 1.08428 0.221038)
(0.157461 1.08428 0.220645)
(0.158012 1.08428 0.220251)
(0.158562 1.08428 0.219855)
(0.159111 1.08428 0.219458)
(0.159659 1.08428 0.21906)
(0.160206 1.08428 0.21866)
(0.160752 1.08428 0.218259)
(0.161297 1.08428 0.217857)
(0.161841 1.08428 0.217453)
(0.162384 1.08428 0.217048)
(0.162926 1.08428 0.216641)
(0.163467 1.08428 0.216234)
(0.164007 1.08428 0.215824)
(0.164546 1.08428 0.215414)
(0.165083 1.08428 0.215002)
(0.16562 1.08428 0.214588)
(0.166156 1.08428 0.214174)
(0.166691 1.08428 0.213758)
(0.167224 1.08428 0.213341)
(0.167757 1.08428 0.212922)
(0.168289 1.08428 0.212502)
(0.168819 1.08428 0.212081)
(0.169349 1.08428 0.211658)
(0.169877 1.08428 0.211234)
(0.170405 1.08428 0.210809)
(0.170931 1.08428 0.210383)
(0.171456 1.08428 0.209955)
(0.171981 1.08428 0.209526)
(0.172504 1.08428 0.209095)
(0.173026 1.08428 0.208663)
(0.173547 1.08428 0.20823)
(0.174067 1.08428 0.207796)
(0.174585 1.08428 0.20736)
(0.175103 1.08428 0.206923)
(0.17562 1.08428 0.206485)
(0.176135 1.08428 0.206045)
(0.17665 1.08428 0.205604)
(0.177163 1.08428 0.205162)
(0.177675 1.08428 0.204719)
(0.178186 1.08428 0.204274)
(0.178696 1.08428 0.203828)
(0.179205 1.08428 0.203381)
(0.179713 1.08428 0.202933)
(0.18022 1.08428 0.202483)
(0.180725 1.08428 0.202032)
(0.181229 1.08428 0.201579)
(0.181733 1.08428 0.201126)
(0.182235 1.08428 0.200671)
(0.182736 1.08428 0.200215)
(0.183235 1.08428 0.199758)
(0.183734 1.08428 0.199299)
(0.184232 1.08428 0.198839)
(0.184728 1.08428 0.198378)
(0.185223 1.08428 0.197916)
(0.185717 1.08428 0.197452)
(0.18621 1.08428 0.196987)
(0.186702 1.08428 0.196521)
(0.187193 1.08428 0.196054)
(0.187682 1.08428 0.195586)
(0.18817 1.08428 0.195116)
(0.188657 1.08428 0.194645)
(0.189143 1.08428 0.194173)
(0.189628 1.08428 0.1937)
(0.190111 1.08428 0.193225)
(0.190594 1.08428 0.192749)
(0.191075 1.08428 0.192272)
(0.191555 1.08428 0.191794)
(0.192033 1.08428 0.191315)
(0.192511 1.08428 0.190834)
(0.192987 1.08428 0.190353)
(0.193463 1.08428 0.18987)
(0.193936 1.08428 0.189386)
(0.194409 1.08428 0.1889)
(0.194881 1.08428 0.188414)
(0.195351 1.08428 0.187926)
(0.19582 1.08428 0.187437)
(0.196288 1.08428 0.186947)
(0.196755 1.08428 0.186456)
(0.19722 1.08428 0.185964)
(0.197684 1.08428 0.18547)
(0.198147 1.08428 0.184976)
(0.198609 1.08428 0.18448)
(0.199069 1.08428 0.183983)
(0.199528 1.08428 0.183485)
(0.199986 1.08428 0.182986)
(0.200443 1.08428 0.182485)
(0.200898 1.08428 0.181984)
(0.201353 1.08428 0.181481)
(0.201806 1.08428 0.180977)
(0.202257 1.08428 0.180472)
(0.202708 1.08428 0.179966)
(0.203157 1.08428 0.179459)
(0.203605 1.08428 0.178951)
(0.204051 1.08428 0.178441)
(0.204497 1.08428 0.177931)
(0.204941 1.08428 0.177419)
(0.205383 1.08428 0.176906)
(0.205825 1.08428 0.176393)
(0.206265 1.08428 0.175878)
(0.206704 1.08428 0.175361)
(0.207142 1.08428 0.174844)
(0.207578 1.08428 0.174326)
(0.208013 1.08428 0.173807)
(0.208447 1.08428 0.173286)
(0.208879 1.08428 0.172765)
(0.209311 1.08428 0.172242)
(0.20974 1.08428 0.171719)
(0.210169 1.08428 0.171194)
(0.210596 1.08428 0.170668)
(0.211022 1.08428 0.170141)
(0.211446 1.08428 0.169613)
(0.21187 1.08428 0.169084)
(0.212292 1.08428 0.168554)
(0.212712 1.08428 0.168023)
(0.213132 1.08428 0.167491)
(0.213549 1.08428 0.166958)
(0.213966 1.08428 0.166423)
(0.214381 1.08428 0.165888)
(0.214795 1.08428 0.165352)
(0.215208 1.08428 0.164815)
(0.215619 1.08428 0.164276)
(0.216029 1.08428 0.163737)
(0.216438 1.08428 0.163196)
(0.216845 1.08428 0.162655)
(0.217251 1.08428 0.162113)
(0.217655 1.08428 0.161569)
(0.218058 1.08428 0.161024)
(0.21846 1.08428 0.160479)
(0.21886 1.08428 0.159932)
(0.219259 1.08428 0.159385)
(0.219657 1.08428 0.158837)
(0.220053 1.08428 0.158287)
(0.220448 1.08428 0.157737)
(0.220842 1.08428 0.157185)
(0.221234 1.08428 0.156633)
(0.221625 1.08428 0.156079)
(0.222014 1.08428 0.155525)
(0.222402 1.08428 0.15497)
(0.222789 1.08428 0.154413)
(0.223174 1.08428 0.153856)
(0.223558 1.08428 0.153298)
(0.22394 1.08428 0.152738)
(0.224321 1.08428 0.152178)
(0.224701 1.08428 0.151617)
(0.225079 1.08428 0.151055)
(0.225456 1.08428 0.150492)
(0.225831 1.08428 0.149928)
(0.226205 1.08428 0.149363)
(0.226578 1.08428 0.148797)
(0.226949 1.08428 0.148231)
(0.227319 1.08428 0.147663)
(0.227687 1.08428 0.147095)
(0.228054 1.08428 0.146525)
(0.22842 1.08428 0.145955)
(0.228784 1.08428 0.145383)
(0.229146 1.08428 0.144811)
(0.229508 1.08428 0.144238)
(0.229867 1.08428 0.143664)
(0.230226 1.08428 0.143089)
(0.230583 1.08428 0.142513)
(0.230938 1.08428 0.141936)
(0.231292 1.08428 0.141359)
(0.231645 1.08428 0.14078)
(0.231996 1.08428 0.140201)
(0.232346 1.08428 0.13962)
(0.232694 1.08428 0.139039)
(0.23304 1.08428 0.138457)
(0.233386 1.08428 0.137874)
(0.23373 1.08428 0.137291)
(0.234072 1.08428 0.136706)
(0.234413 1.08428 0.136121)
(0.234753 1.08428 0.135534)
(0.23509 1.08428 0.134947)
(0.235427 1.08428 0.134359)
(0.235762 1.08428 0.13377)
(0.236096 1.08428 0.133181)
(0.236428 1.08428 0.13259)
(0.236758 1.08428 0.131999)
(0.237088 1.08428 0.131407)
(0.237415 1.08428 0.130814)
(0.237742 1.08428 0.13022)
(0.238066 1.08428 0.129626)
(0.238389 1.08428 0.12903)
(0.238711 1.08428 0.128434)
(0.239031 1.08428 0.127837)
(0.23935 1.08428 0.127239)
(0.239667 1.08428 0.12664)
(0.239983 1.08428 0.126041)
(0.240297 1.08428 0.125441)
(0.24061 1.08428 0.12484)
(0.240921 1.08428 0.124238)
(0.241231 1.08428 0.123636)
(0.241539 1.08428 0.123033)
(0.241846 1.08428 0.122428)
(0.242151 1.08428 0.121824)
(0.242455 1.08428 0.121218)
(0.242757 1.08428 0.120612)
(0.243058 1.08428 0.120005)
(0.243357 1.08428 0.119397)
(0.243655 1.08428 0.118788)
(0.243951 1.08428 0.118179)
(0.244245 1.08428 0.117569)
(0.244539 1.08428 0.116958)
(0.24483 1.08428 0.116346)
(0.24512 1.08428 0.115734)
(0.245409 1.08428 0.115121)
(0.245696 1.08428 0.114507)
(0.245981 1.08428 0.113893)
(0.246265 1.08428 0.113278)
(0.246547 1.08428 0.112662)
(0.246828 1.08428 0.112045)
(0.247107 1.08428 0.111428)
(0.247385 1.08428 0.11081)
(0.247661 1.08428 0.110192)
(0.247936 1.08428 0.109572)
(0.248209 1.08428 0.108952)
(0.24848 1.08428 0.108332)
(0.24875 1.08428 0.10771)
(0.249019 1.08428 0.107088)
(0.249286 1.08428 0.106466)
(0.249551 1.08428 0.105842)
(0.249815 1.08428 0.105218)
(0.250077 1.08428 0.104594)
(0.250338 1.08428 0.103968)
(0.250597 1.08428 0.103342)
(0.250854 1.08428 0.102716)
(0.25111 1.08428 0.102088)
(0.251364 1.08428 0.10146)
(0.251617 1.08428 0.100832)
(0.251868 1.08428 0.100203)
(0.252118 1.08428 0.0995729)
(0.252366 1.08428 0.0989425)
(0.252613 1.08428 0.0983114)
(0.252858 1.08428 0.0976797)
(0.253101 1.08428 0.0970475)
(0.253343 1.08428 0.0964146)
(0.253583 1.08428 0.0957811)
(0.253821 1.08428 0.0951471)
(0.254058 1.08428 0.0945124)
(0.254294 1.08428 0.0938771)
(0.254528 1.08428 0.0932413)
(0.25476 1.08428 0.0926049)
(0.254991 1.08428 0.0919679)
(0.25522 1.08428 0.0913303)
(0.255447 1.08428 0.0906921)
(0.255673 1.08428 0.0900534)
(0.255897 1.08428 0.0894141)
(0.25612 1.08428 0.0887743)
(0.256341 1.08428 0.0881339)
(0.256561 1.08428 0.087493)
(0.256778 1.08428 0.0868515)
(0.256995 1.08428 0.0862095)
(0.257209 1.08428 0.0855669)
(0.257422 1.08428 0.0849238)
(0.257634 1.08428 0.0842801)
(0.257844 1.08428 0.083636)
(0.258052 1.08428 0.0829913)
(0.258258 1.08428 0.0823461)
(0.258463 1.08428 0.0817004)
(0.258667 1.08428 0.0810542)
(0.258869 1.08428 0.0804074)
(0.259069 1.08428 0.0797602)
(0.259267 1.08428 0.0791125)
(0.259464 1.08428 0.0784642)
(0.259659 1.08428 0.0778155)
(0.259853 1.08428 0.0771663)
(0.260045 1.08428 0.0765166)
(0.260236 1.08428 0.0758665)
(0.260424 1.08428 0.0752158)
(0.260612 1.08428 0.0745647)
(0.260797 1.08428 0.0739131)
(0.260981 1.08428 0.0732611)
(0.261163 1.08428 0.0726086)
(0.261344 1.08428 0.0719557)
(0.261523 1.08428 0.0713023)
(0.2617 1.08428 0.0706484)
(0.261876 1.08428 0.0699942)
(0.26205 1.08428 0.0693394)
(0.262223 1.08428 0.0686843)
(0.262394 1.08428 0.0680287)
(0.262563 1.08428 0.0673727)
(0.26273 1.08428 0.0667163)
(0.262896 1.08428 0.0660594)
(0.263061 1.08428 0.0654022)
(0.263223 1.08428 0.0647445)
(0.263384 1.08428 0.0640864)
(0.263543 1.08428 0.063428)
(0.263701 1.08428 0.0627691)
(0.263857 1.08428 0.0621098)
(0.264012 1.08428 0.0614502)
(0.264164 1.08428 0.0607902)
(0.264315 1.08428 0.0601298)
(0.264465 1.08428 0.059469)
(0.264613 1.08428 0.0588078)
(0.264759 1.08428 0.0581463)
(0.264903 1.08428 0.0574844)
(0.265046 1.08428 0.0568222)
(0.265188 1.08428 0.0561595)
(0.265327 1.08428 0.0554966)
(0.265465 1.08428 0.0548333)
(0.265601 1.08428 0.0541697)
(0.265736 1.08428 0.0535057)
(0.265869 1.08428 0.0528414)
(0.266 1.08428 0.0521767)
(0.266129 1.08428 0.0515117)
(0.266257 1.08428 0.0508465)
(0.266383 1.08428 0.0501808)
(0.266508 1.08428 0.0495149)
(0.266631 1.08428 0.0488487)
(0.266752 1.08428 0.0481822)
(0.266872 1.08428 0.0475153)
(0.26699 1.08428 0.0468482)
(0.267106 1.08428 0.0461808)
(0.267221 1.08428 0.045513)
(0.267334 1.08428 0.044845)
(0.267445 1.08428 0.0441768)
(0.267554 1.08428 0.0435082)
(0.267662 1.08428 0.0428394)
(0.267769 1.08428 0.0421703)
(0.267873 1.08428 0.0415009)
(0.267976 1.08428 0.0408313)
(0.268077 1.08428 0.0401614)
(0.268177 1.08428 0.0394913)
(0.268274 1.08428 0.0388209)
(0.268371 1.08428 0.0381503)
(0.268465 1.08428 0.0374795)
(0.268558 1.08428 0.0368084)
(0.268649 1.08428 0.0361371)
(0.268739 1.08428 0.0354655)
(0.268827 1.08428 0.0347938)
(0.268913 1.08428 0.0341218)
(0.268997 1.08428 0.0334496)
(0.26908 1.08428 0.0327772)
(0.269161 1.08428 0.0321046)
(0.26924 1.08428 0.0314318)
(0.269318 1.08428 0.0307588)
(0.269394 1.08428 0.0300856)
(0.269468 1.08428 0.0294122)
(0.269541 1.08428 0.0287386)
(0.269612 1.08428 0.0280649)
(0.269681 1.08428 0.027391)
(0.269749 1.08428 0.0267169)
(0.269815 1.08428 0.0260426)
(0.269879 1.08428 0.0253682)
(0.269942 1.08428 0.0246936)
(0.270003 1.08428 0.0240189)
(0.270062 1.08428 0.023344)
(0.270119 1.08428 0.022669)
(0.270175 1.08428 0.0219938)
(0.270229 1.08428 0.0213185)
(0.270282 1.08428 0.020643)
(0.270332 1.08428 0.0199674)
(0.270381 1.08428 0.0192917)
(0.270429 1.08428 0.0186159)
(0.270474 1.08428 0.01794)
(0.270519 1.08428 0.017264)
(0.270561 1.08428 0.0165878)
(0.270601 1.08428 0.0159115)
(0.27064 1.08428 0.0152352)
(0.270678 1.08428 0.0145587)
(0.270713 1.08428 0.0138822)
(0.270747 1.08428 0.0132056)
(0.270779 1.08428 0.0125288)
(0.27081 1.08428 0.0118521)
(0.270838 1.08428 0.0111752)
(0.270865 1.08428 0.0104983)
(0.270891 1.08428 0.00982126)
(0.270914 1.08428 0.0091442)
(0.270936 1.08428 0.00846708)
(0.270957 1.08428 0.00778991)
(0.270976 1.08428 0.00711269)
(0.270992 1.08428 0.00643542)
(0.271008 1.08428 0.00575812)
(0.271021 1.08428 0.00508077)
(0.271033 1.08428 0.0044034)
(0.271043 1.08428 0.003726)
(0.271052 1.08428 0.00304858)
(0.271058 1.08428 0.00237114)
(0.271064 1.08428 0.00169368)
(0.271067 1.08428 0.00101621)
(0.271069 1.08428 0.000338738)
(0.271069 1.08428 -0.000338738)
(0.271067 1.08428 -0.00101621)
(0.271064 1.08428 -0.00169368)
(0.271058 1.08428 -0.00237114)
(0.271052 1.08428 -0.00304858)
(0.271043 1.08428 -0.003726)
(0.271033 1.08428 -0.0044034)
(0.271021 1.08428 -0.00508077)
(0.271008 1.08428 -0.00575812)
(0.270992 1.08428 -0.00643542)
(0.270976 1.08428 -0.00711269)
(0.270957 1.08428 -0.00778991)
(0.270936 1.08428 -0.00846708)
(0.270914 1.08428 -0.0091442)
(0.270891 1.08428 -0.00982126)
(0.270865 1.08428 -0.0104983)
(0.270838 1.08428 -0.0111752)
(0.27081 1.08428 -0.0118521)
(0.270779 1.08428 -0.0125288)
(0.270747 1.08428 -0.0132056)
(0.270713 1.08428 -0.0138822)
(0.270678 1.08428 -0.0145587)
(0.27064 1.08428 -0.0152352)
(0.270601 1.08428 -0.0159115)
(0.270561 1.08428 -0.0165878)
(0.270519 1.08428 -0.017264)
(0.270474 1.08428 -0.01794)
(0.270429 1.08428 -0.0186159)
(0.270381 1.08428 -0.0192917)
(0.270332 1.08428 -0.0199674)
(0.270282 1.08428 -0.020643)
(0.270229 1.08428 -0.0213185)
(0.270175 1.08428 -0.0219938)
(0.270119 1.08428 -0.022669)
(0.270062 1.08428 -0.023344)
(0.270003 1.08428 -0.0240189)
(0.269942 1.08428 -0.0246936)
(0.269879 1.08428 -0.0253682)
(0.269815 1.08428 -0.0260426)
(0.269749 1.08428 -0.0267169)
(0.269681 1.08428 -0.027391)
(0.269612 1.08428 -0.0280649)
(0.269541 1.08428 -0.0287386)
(0.269468 1.08428 -0.0294122)
(0.269394 1.08428 -0.0300856)
(0.269318 1.08428 -0.0307588)
(0.26924 1.08428 -0.0314318)
(0.269161 1.08428 -0.0321046)
(0.26908 1.08428 -0.0327772)
(0.268997 1.08428 -0.0334496)
(0.268913 1.08428 -0.0341218)
(0.268827 1.08428 -0.0347938)
(0.268739 1.08428 -0.0354655)
(0.268649 1.08428 -0.0361371)
(0.268558 1.08428 -0.0368084)
(0.268465 1.08428 -0.0374795)
(0.268371 1.08428 -0.0381503)
(0.268274 1.08428 -0.0388209)
(0.268177 1.08428 -0.0394913)
(0.268077 1.08428 -0.0401614)
(0.267976 1.08428 -0.0408313)
(0.267873 1.08428 -0.0415009)
(0.267769 1.08428 -0.0421703)
(0.267662 1.08428 -0.0428394)
(0.267554 1.08428 -0.0435082)
(0.267445 1.08428 -0.0441768)
(0.267334 1.08428 -0.044845)
(0.267221 1.08428 -0.045513)
(0.267106 1.08428 -0.0461808)
(0.26699 1.08428 -0.0468482)
(0.266872 1.08428 -0.0475153)
(0.266752 1.08428 -0.0481822)
(0.266631 1.08428 -0.0488487)
(0.266508 1.08428 -0.0495149)
(0.266383 1.08428 -0.0501808)
(0.266257 1.08428 -0.0508465)
(0.266129 1.08428 -0.0515117)
(0.266 1.08428 -0.0521767)
(0.265869 1.08428 -0.0528414)
(0.265736 1.08428 -0.0535057)
(0.265601 1.08428 -0.0541697)
(0.265465 1.08428 -0.0548333)
(0.265327 1.08428 -0.0554966)
(0.265188 1.08428 -0.0561595)
(0.265046 1.08428 -0.0568222)
(0.264903 1.08428 -0.0574844)
(0.264759 1.08428 -0.0581463)
(0.264613 1.08428 -0.0588078)
(0.264465 1.08428 -0.059469)
(0.264315 1.08428 -0.0601298)
(0.264164 1.08428 -0.0607902)
(0.264012 1.08428 -0.0614502)
(0.263857 1.08428 -0.0621098)
(0.263701 1.08428 -0.0627691)
(0.263543 1.08428 -0.063428)
(0.263384 1.08428 -0.0640864)
(0.263223 1.08428 -0.0647445)
(0.263061 1.08428 -0.0654022)
(0.262896 1.08428 -0.0660594)
(0.26273 1.08428 -0.0667163)
(0.262563 1.08428 -0.0673727)
(0.262394 1.08428 -0.0680287)
(0.262223 1.08428 -0.0686843)
(0.26205 1.08428 -0.0693394)
(0.261876 1.08428 -0.0699942)
(0.2617 1.08428 -0.0706484)
(0.261523 1.08428 -0.0713023)
(0.261344 1.08428 -0.0719557)
(0.261163 1.08428 -0.0726086)
(0.260981 1.08428 -0.0732611)
(0.260797 1.08428 -0.0739131)
(0.260612 1.08428 -0.0745647)
(0.260424 1.08428 -0.0752158)
(0.260236 1.08428 -0.0758665)
(0.260045 1.08428 -0.0765166)
(0.259853 1.08428 -0.0771663)
(0.259659 1.08428 -0.0778155)
(0.259464 1.08428 -0.0784642)
(0.259267 1.08428 -0.0791125)
(0.259069 1.08428 -0.0797602)
(0.258869 1.08428 -0.0804074)
(0.258667 1.08428 -0.0810542)
(0.258463 1.08428 -0.0817004)
(0.258258 1.08428 -0.0823461)
(0.258052 1.08428 -0.0829913)
(0.257844 1.08428 -0.083636)
(0.257634 1.08428 -0.0842801)
(0.257422 1.08428 -0.0849238)
(0.257209 1.08428 -0.0855669)
(0.256995 1.08428 -0.0862095)
(0.256778 1.08428 -0.0868515)
(0.256561 1.08428 -0.087493)
(0.256341 1.08428 -0.0881339)
(0.25612 1.08428 -0.0887743)
(0.255897 1.08428 -0.0894141)
(0.255673 1.08428 -0.0900534)
(0.255447 1.08428 -0.0906921)
(0.25522 1.08428 -0.0913303)
(0.254991 1.08428 -0.0919679)
(0.25476 1.08428 -0.0926049)
(0.254528 1.08428 -0.0932413)
(0.254294 1.08428 -0.0938771)
(0.254058 1.08428 -0.0945124)
(0.253821 1.08428 -0.0951471)
(0.253583 1.08428 -0.0957811)
(0.253343 1.08428 -0.0964146)
(0.253101 1.08428 -0.0970475)
(0.252858 1.08428 -0.0976797)
(0.252613 1.08428 -0.0983114)
(0.252366 1.08428 -0.0989425)
(0.252118 1.08428 -0.0995729)
(0.251868 1.08428 -0.100203)
(0.251617 1.08428 -0.100832)
(0.251364 1.08428 -0.10146)
(0.25111 1.08428 -0.102088)
(0.250854 1.08428 -0.102716)
(0.250597 1.08428 -0.103342)
(0.250338 1.08428 -0.103968)
(0.250077 1.08428 -0.104594)
(0.249815 1.08428 -0.105218)
(0.249551 1.08428 -0.105842)
(0.249286 1.08428 -0.106466)
(0.249019 1.08428 -0.107088)
(0.24875 1.08428 -0.10771)
(0.24848 1.08428 -0.108332)
(0.248209 1.08428 -0.108952)
(0.247936 1.08428 -0.109572)
(0.247661 1.08428 -0.110192)
(0.247385 1.08428 -0.11081)
(0.247107 1.08428 -0.111428)
(0.246828 1.08428 -0.112045)
(0.246547 1.08428 -0.112662)
(0.246265 1.08428 -0.113278)
(0.245981 1.08428 -0.113893)
(0.245696 1.08428 -0.114507)
(0.245409 1.08428 -0.115121)
(0.24512 1.08428 -0.115734)
(0.24483 1.08428 -0.116346)
(0.244539 1.08428 -0.116958)
(0.244245 1.08428 -0.117569)
(0.243951 1.08428 -0.118179)
(0.243655 1.08428 -0.118788)
(0.243357 1.08428 -0.119397)
(0.243058 1.08428 -0.120005)
(0.242757 1.08428 -0.120612)
(0.242455 1.08428 -0.121218)
(0.242151 1.08428 -0.121824)
(0.241846 1.08428 -0.122428)
(0.241539 1.08428 -0.123033)
(0.241231 1.08428 -0.123636)
(0.240921 1.08428 -0.124238)
(0.24061 1.08428 -0.12484)
(0.240297 1.08428 -0.125441)
(0.239983 1.08428 -0.126041)
(0.239667 1.08428 -0.12664)
(0.23935 1.08428 -0.127239)
(0.239031 1.08428 -0.127837)
(0.238711 1.08428 -0.128434)
(0.238389 1.08428 -0.12903)
(0.238066 1.08428 -0.129626)
(0.237742 1.08428 -0.13022)
(0.237415 1.08428 -0.130814)
(0.237088 1.08428 -0.131407)
(0.236758 1.08428 -0.131999)
(0.236428 1.08428 -0.13259)
(0.236096 1.08428 -0.133181)
(0.235762 1.08428 -0.13377)
(0.235427 1.08428 -0.134359)
(0.23509 1.08428 -0.134947)
(0.234753 1.08428 -0.135534)
(0.234413 1.08428 -0.136121)
(0.234072 1.08428 -0.136706)
(0.23373 1.08428 -0.137291)
(0.233386 1.08428 -0.137874)
(0.23304 1.08428 -0.138457)
(0.232694 1.08428 -0.139039)
(0.232346 1.08428 -0.13962)
(0.231996 1.08428 -0.140201)
(0.231645 1.08428 -0.14078)
(0.231292 1.08428 -0.141359)
(0.230938 1.08428 -0.141936)
(0.230583 1.08428 -0.142513)
(0.230226 1.08428 -0.143089)
(0.229867 1.08428 -0.143664)
(0.229508 1.08428 -0.144238)
(0.229146 1.08428 -0.144811)
(0.228784 1.08428 -0.145383)
(0.22842 1.08428 -0.145955)
(0.228054 1.08428 -0.146525)
(0.227687 1.08428 -0.147095)
(0.227319 1.08428 -0.147663)
(0.226949 1.08428 -0.148231)
(0.226578 1.08428 -0.148797)
(0.226205 1.08428 -0.149363)
(0.225831 1.08428 -0.149928)
(0.225456 1.08428 -0.150492)
(0.225079 1.08428 -0.151055)
(0.224701 1.08428 -0.151617)
(0.224321 1.08428 -0.152178)
(0.22394 1.08428 -0.152738)
(0.223558 1.08428 -0.153298)
(0.223174 1.08428 -0.153856)
(0.222789 1.08428 -0.154413)
(0.222402 1.08428 -0.15497)
(0.222014 1.08428 -0.155525)
(0.221625 1.08428 -0.156079)
(0.221234 1.08428 -0.156633)
(0.220842 1.08428 -0.157185)
(0.220448 1.08428 -0.157737)
(0.220053 1.08428 -0.158287)
(0.219657 1.08428 -0.158837)
(0.219259 1.08428 -0.159385)
(0.21886 1.08428 -0.159932)
(0.21846 1.08428 -0.160479)
(0.218058 1.08428 -0.161024)
(0.217655 1.08428 -0.161569)
(0.217251 1.08428 -0.162113)
(0.216845 1.08428 -0.162655)
(0.216438 1.08428 -0.163196)
(0.216029 1.08428 -0.163737)
(0.215619 1.08428 -0.164276)
(0.215208 1.08428 -0.164815)
(0.214795 1.08428 -0.165352)
(0.214381 1.08428 -0.165888)
(0.213966 1.08428 -0.166423)
(0.213549 1.08428 -0.166958)
(0.213132 1.08428 -0.167491)
(0.212712 1.08428 -0.168023)
(0.212292 1.08428 -0.168554)
(0.21187 1.08428 -0.169084)
(0.211446 1.08428 -0.169613)
(0.211022 1.08428 -0.170141)
(0.210596 1.08428 -0.170668)
(0.210169 1.08428 -0.171194)
(0.20974 1.08428 -0.171719)
(0.209311 1.08428 -0.172242)
(0.208879 1.08428 -0.172765)
(0.208447 1.08428 -0.173286)
(0.208013 1.08428 -0.173807)
(0.207578 1.08428 -0.174326)
(0.207142 1.08428 -0.174844)
(0.206704 1.08428 -0.175361)
(0.206265 1.08428 -0.175878)
(0.205825 1.08428 -0.176393)
(0.205383 1.08428 -0.176906)
(0.204941 1.08428 -0.177419)
(0.204497 1.08428 -0.177931)
(0.204051 1.08428 -0.178441)
(0.203605 1.08428 -0.178951)
(0.203157 1.08428 -0.179459)
(0.202708 1.08428 -0.179966)
(0.202257 1.08428 -0.180472)
(0.201806 1.08428 -0.180977)
(0.201353 1.08428 -0.181481)
(0.200898 1.08428 -0.181984)
(0.200443 1.08428 -0.182485)
(0.199986 1.08428 -0.182986)
(0.199528 1.08428 -0.183485)
(0.199069 1.08428 -0.183983)
(0.198609 1.08428 -0.18448)
(0.198147 1.08428 -0.184976)
(0.197684 1.08428 -0.18547)
(0.19722 1.08428 -0.185964)
(0.196755 1.08428 -0.186456)
(0.196288 1.08428 -0.186947)
(0.19582 1.08428 -0.187437)
(0.195351 1.08428 -0.187926)
(0.194881 1.08428 -0.188414)
(0.194409 1.08428 -0.1889)
(0.193936 1.08428 -0.189386)
(0.193463 1.08428 -0.18987)
(0.192987 1.08428 -0.190353)
(0.192511 1.08428 -0.190834)
(0.192033 1.08428 -0.191315)
(0.191555 1.08428 -0.191794)
(0.191075 1.08428 -0.192272)
(0.190594 1.08428 -0.192749)
(0.190111 1.08428 -0.193225)
(0.189628 1.08428 -0.1937)
(0.189143 1.08428 -0.194173)
(0.188657 1.08428 -0.194645)
(0.18817 1.08428 -0.195116)
(0.187682 1.08428 -0.195586)
(0.187193 1.08428 -0.196054)
(0.186702 1.08428 -0.196521)
(0.18621 1.08428 -0.196987)
(0.185717 1.08428 -0.197452)
(0.185223 1.08428 -0.197916)
(0.184728 1.08428 -0.198378)
(0.184232 1.08428 -0.198839)
(0.183734 1.08428 -0.199299)
(0.183235 1.08428 -0.199758)
(0.182736 1.08428 -0.200215)
(0.182235 1.08428 -0.200671)
(0.181733 1.08428 -0.201126)
(0.181229 1.08428 -0.201579)
(0.180725 1.08428 -0.202032)
(0.18022 1.08428 -0.202483)
(0.179713 1.08428 -0.202933)
(0.179205 1.08428 -0.203381)
(0.178696 1.08428 -0.203828)
(0.178186 1.08428 -0.204274)
(0.177675 1.08428 -0.204719)
(0.177163 1.08428 -0.205162)
(0.17665 1.08428 -0.205604)
(0.176135 1.08428 -0.206045)
(0.17562 1.08428 -0.206485)
(0.175103 1.08428 -0.206923)
(0.174585 1.08428 -0.20736)
(0.174067 1.08428 -0.207796)
(0.173547 1.08428 -0.20823)
(0.173026 1.08428 -0.208663)
(0.172504 1.08428 -0.209095)
(0.171981 1.08428 -0.209526)
(0.171456 1.08428 -0.209955)
(0.170931 1.08428 -0.210383)
(0.170405 1.08428 -0.210809)
(0.169877 1.08428 -0.211234)
(0.169349 1.08428 -0.211658)
(0.168819 1.08428 -0.212081)
(0.168289 1.08428 -0.212502)
(0.167757 1.08428 -0.212922)
(0.167224 1.08428 -0.213341)
(0.166691 1.08428 -0.213758)
(0.166156 1.08428 -0.214174)
(0.16562 1.08428 -0.214588)
(0.165083 1.08428 -0.215002)
(0.164546 1.08428 -0.215414)
(0.164007 1.08428 -0.215824)
(0.163467 1.08428 -0.216234)
(0.162926 1.08428 -0.216641)
(0.162384 1.08428 -0.217048)
(0.161841 1.08428 -0.217453)
(0.161297 1.08428 -0.217857)
(0.160752 1.08428 -0.218259)
(0.160206 1.08428 -0.21866)
(0.159659 1.08428 -0.21906)
(0.159111 1.08428 -0.219458)