/*--------------------------------*- C++ -*----------------------------------*\
  =========                 |
  \\      /  F ield         | OpenFOAM: The Open Source CFD Toolbox
   \\    /   O peration     | Website:  https://openfoam.org
    \\  /    A nd           | Version:  10
     \\/     M anipulation  |
\*---------------------------------------------------------------------------*/
FoamFile
{
    format      ascii;
    class       featureEdgeMesh;
    location    "constant/triSurface";
    object      MRF.eMesh;
}
// * * * * * * * * * * * * * * * * * * * * * * * * * * * * * * * * * * * * * //


// points:

14903
(
(-0.0130274 0.53592 -0.00373928)
(-0.0121222 0.531476 -0.00606198)
(0.00081128 0.552799 -0.0135291)
(0.0032754 0.548355 -0.0131517)
(-0.0121222 0.552799 0.00606198)
(0.0032754 0.53592 0.0131517)
(0.00081128 0.531476 0.0135291)
(-0.0130274 0.548355 0.00373928)
(0.00975202 0.53592 -0.00941243)
(0.0113109 0.531476 -0.00746716)
(0.0113109 0.552799 0.00746716)
(0.00975202 0.548355 0.00941243)
(0.0140057 0.491599 0.083207)
(-0.0762956 0.59587 0.0310715)
(-0.0790622 0.592676 0.0294742)
(0.0112391 0.488405 0.0816097)
(0.0650565 0.491599 -0.0537328)
(0.0650565 0.488405 -0.0505382)
(0.0650565 0.592676 0.0537328)
(0.0650565 0.59587 0.0505382)
(-0.0790622 0.491599 -0.0294742)
(-0.0762956 0.488405 -0.0310715)
(0.0140057 0.592676 -0.083207)
(0.0112391 0.59587 -0.0816097)
(-0.108404 0.195169 0.00225891)
(-0.108404 0.238541 0.00225891)
(-0.0541667 0.238541 0.00225891)
(-0.0541667 0.195169 0.00225891)
(-0.0541667 0.238541 -0.00225891)
(-0.108404 0.238541 -0.00225891)
(-0.108404 0.195169 -0.00225891)
(-0.0541667 0.195169 -0.00225891)
(-0.0561583 0.238541 0.0927512)
(-0.0561583 0.195169 0.0927512)
(-0.0290396 0.195169 0.0457803)
(-0.0290396 0.238541 0.0457803)
(-0.0251271 0.238541 0.0480392)
(-0.0290396 0.195169 -0.0457803)
(-0.0561583 0.195169 -0.0927512)
(-0.0561583 0.238541 -0.0927512)
(-0.0290396 0.238541 -0.0457803)
(-0.0522457 0.195169 0.0950101)
(-0.0522457 0.238541 0.0950101)
(-0.0251271 0.195169 0.0480392)
(-0.0251271 0.238541 -0.0480392)
(-0.0251271 0.195169 -0.0480392)
(-0.0522457 0.238541 -0.0950101)
(-0.0522457 0.195169 -0.0950101)
(0.0522457 0.238541 0.0950101)
(0.0522457 0.195169 0.0950101)
(0.0251271 0.195169 0.0480392)
(0.0251271 0.238541 0.0480392)
(0.0290396 0.238541 0.0457803)
(0.0251271 0.195169 -0.0480392)
(0.0522457 0.195169 -0.0950101)
(0.0522457 0.238541 -0.0950101)
(0.0251271 0.238541 -0.0480392)
(0.0561583 0.195169 0.0927512)
(0.0561583 0.238541 0.0927512)
(0.0290396 0.195169 0.0457803)
(0.0290396 0.238541 -0.0457803)
(0.0290396 0.195169 -0.0457803)
(0.0561583 0.238541 -0.0927512)
(0.0561583 0.195169 -0.0927512)
(0.0541667 0.195169 0.00225891)
(0.0541667 0.238541 0.00225891)
(0.108404 0.238541 0.00225891)
(0.108404 0.195169 0.00225891)
(0.0541667 0.238541 -0.00225891)
(0.0541667 0.195169 -0.00225891)
(0.108404 0.195169 -0.00225891)
(0.108404 0.238541 -0.00225891)
(0.00368921 0.519589 0.0323184)
(0.00615333 0.524033 0.0319409)
(-0.0298331 0.564686 0.0129642)
(-0.0307383 0.560242 0.0106415)
(0.0261439 0.519589 -0.0193541)
(0.024585 0.524033 -0.0212994)
(0.0261439 0.564686 0.0193541)
(0.024585 0.560242 0.0212994)
(-0.0298331 0.519589 -0.0129642)
(-0.0307383 0.524033 -0.0106415)
(0.00368921 0.564686 -0.0323184)
(0.00615333 0.560242 -0.0319409)
(-0.0921357 0.219114 0.00225891)
(-0.0541667 0.219114 0.00225891)
(-0.0541667 0.219114 -0.00225891)
(-0.0921357 0.219114 -0.00225891)
(-0.0480241 0.219114 -0.0786624)
(-0.0290396 0.219114 -0.0457803)
(-0.0251271 0.219114 -0.0480392)
(-0.0441116 0.219114 -0.0809213)
(0.0441116 0.219114 -0.0809213)
(0.0251271 0.219114 -0.0480392)
(0.0290396 0.219114 -0.0457803)
(0.0480241 0.219114 -0.0786624)
(0.0921357 0.219114 -0.00225891)
(0.0541667 0.219114 -0.00225891)
(0.0541667 0.219114 0.00225891)
(0.0921357 0.219114 0.00225891)
(0.0480241 0.219114 0.0786624)
(0.0290396 0.219114 0.0457803)
(0.0251271 0.219114 0.0480392)
(0.0441116 0.219114 0.0809213)
(-0.0441116 0.219114 0.0809213)
(-0.0251271 0.219114 0.0480392)
(-0.0290396 0.219114 0.0457803)
(-0.0480241 0.219114 0.0786624)
(-0.0921357 0.214596 0.00225891)
(-0.0541667 0.214596 0.00225891)
(-0.0480241 0.214596 0.0786624)
(-0.0541667 0.214596 -0.00225891)
(-0.0921357 0.214596 -0.00225891)
(-0.0290396 0.214596 0.0457803)
(-0.0480241 0.214596 -0.0786624)
(-0.0290396 0.214596 -0.0457803)
(-0.0441116 0.214596 0.0809213)
(-0.0251271 0.214596 0.0480392)
(0.0441116 0.214596 0.0809213)
(-0.0251271 0.214596 -0.0480392)
(-0.0441116 0.214596 -0.0809213)
(0.0251271 0.214596 0.0480392)
(0.0441116 0.214596 -0.0809213)
(0.0251271 0.214596 -0.0480392)
(0.0480241 0.214596 0.0786624)
(0.0290396 0.214596 0.0457803)
(0.0921357 0.214596 0.00225891)
(0.0290396 0.214596 -0.0457803)
(0.0480241 0.214596 -0.0786624)
(0.0541667 0.214596 0.00225891)
(0.0921357 0.214596 -0.00225891)
(0.0541667 0.214596 -0.00225891)
(-7.96712e-18 0.522679 0.0325283)
(0.000456105 0.522286 0.0325251)
(0.000913744 0.521894 0.0325154)
(0.00137287 0.521504 0.0324993)
(0.00183345 0.521117 0.0324765)
(0.00229542 0.520732 0.0324472)
(0.00275874 0.520348 0.0324111)
(0.00322335 0.519967 0.0323681)
(0.00400157 0.520143 0.0322812)
(0.00431268 0.520697 0.0322411)
(0.00462255 0.521252 0.0321981)
(0.00493118 0.521807 0.0321523)
(0.00523857 0.522363 0.0321037)
(0.00554473 0.522919 0.0320522)
(0.00584964 0.523476 0.0319979)
(0.00563284 0.524436 0.0320368)
(0.00511348 0.524842 0.0321238)
(0.00459535 0.525252 0.032202)
(0.00407852 0.525664 0.0322715)
(0.00356308 0.52608 0.0323325)
(0.00304911 0.526499 0.032385)
(0.00253668 0.526921 0.0324292)
(0.00202586 0.527345 0.0324651)
(0.00151672 0.527772 0.0324929)
(0.00100932 0.528202 0.0325126)
(0.000503728 0.528634 0.0325244)
(-7.96712e-18 0.529068 0.0325283)
(-0.000508804 0.529511 0.0325243)
(-0.00101557 0.529956 0.0325124)
(-0.00152025 0.530402 0.0324927)
(-0.00202279 0.530851 0.0324653)
(-0.00252313 0.531302 0.0324303)
(-0.00302122 0.531755 0.0323877)
(-0.00351702 0.532209 0.0323376)
(-0.00401047 0.532665 0.0322801)
(-0.00450154 0.533123 0.0322153)
(-0.00499017 0.533582 0.0321432)
(-0.00547632 0.534043 0.032064)
(-0.00595995 0.534505 0.0319776)
(-0.00644101 0.534968 0.0318842)
(-0.00691947 0.535433 0.0317838)
(-0.00739528 0.535898 0.0316764)
(-0.0078684 0.536365 0.0315623)
(-0.0083388 0.536833 0.0314412)
(-0.00880642 0.537302 0.0313135)
(-0.00927123 0.537772 0.031179)
(-0.0097332 0.538242 0.0310379)
(-0.0101923 0.538714 0.0308902)
(-0.0106484 0.539186 0.0307359)
(-0.0111016 0.539659 0.0305752)
(-0.0115518 0.540132 0.030408)
(-0.0119989 0.540606 0.0302343)
(-0.012443 0.541081 0.0300543)
(-0.0128839 0.541556 0.0298679)
(-0.0133217 0.542032 0.0296752)
(-0.0137563 0.542507 0.0294763)
(-0.0141876 0.542983 0.0292711)
(-0.0146156 0.54346 0.0290598)
(-0.0150403 0.543936 0.0288423)
(-0.0154617 0.544413 0.0286186)
(-0.0158796 0.54489 0.0283888)
(-0.0162941 0.545367 0.028153)
(-0.0167051 0.545844 0.0279111)
(-0.0171125 0.54632 0.0276632)
(-0.0175163 0.546797 0.0274092)
(-0.0179165 0.547274 0.0271493)
(-0.0183131 0.54775 0.0268834)
(-0.0187059 0.548226 0.0266116)
(-0.0190949 0.548702 0.0263339)
(-0.01948 0.549177 0.0260502)
(-0.0198613 0.549652 0.0257607)
(-0.0202387 0.550127 0.0254653)
(-0.0206121 0.550601 0.025164)
(-0.0209814 0.551074 0.0248569)
(-0.0213466 0.551547 0.024544)
(-0.0217077 0.552019 0.0242253)
(-0.0220645 0.55249 0.0239007)
(-0.0224171 0.552961 0.0235703)
(-0.0227653 0.55343 0.0232342)
(-0.0231091 0.553899 0.0228923)
(-0.0234485 0.554367 0.0225445)
(-0.0237833 0.554833 0.0221911)
(-0.0241134 0.555299 0.0218318)
(-0.0244389 0.555763 0.0214668)
(-0.0247597 0.556227 0.0210961)
(-0.0250756 0.556688 0.0207196)
(-0.0253866 0.557149 0.0203374)
(-0.0256926 0.557608 0.0199494)
(-0.0259935 0.558065 0.0195557)
(-0.0262892 0.558521 0.0191563)
(-0.0265797 0.558975 0.0187511)
(-0.0268649 0.559428 0.0183402)
(-0.0271446 0.559878 0.0179236)
(-0.0274188 0.560327 0.0175013)
(-0.0276874 0.560773 0.0170732)
(-0.0279502 0.561218 0.0166395)
(-0.0282072 0.56166 0.0162)
(-0.0284583 0.5621 0.0157548)
(-0.0287032 0.562538 0.0153039)
(-0.0289421 0.562973 0.0148474)
(-0.0291746 0.563406 0.0143851)
(-0.0294007 0.563835 0.0139171)
(-0.0296203 0.564262 0.0134435)
(-0.0299571 0.564132 0.0126751)
(-0.0300779 0.563578 0.0123856)
(-0.0301957 0.563023 0.0120958)
(-0.0303103 0.562468 0.0118056)
(-0.0304219 0.561912 0.0115151)
(-0.0305304 0.561356 0.0112242)
(-0.0306359 0.560799 0.010933)
(-0.0305593 0.559835 0.0111453)
(-0.030373 0.559425 0.0116434)
(-0.0301795 0.559011 0.0121361)
(-0.0299791 0.558594 0.0126231)
(-0.0297718 0.558174 0.0131046)
(-0.0295577 0.557751 0.0135804)
(-0.0293371 0.557324 0.0140506)
(-0.0291101 0.556895 0.0145152)
(-0.0288767 0.556464 0.0149741)
(-0.0286371 0.55603 0.0154274)
(-0.0283914 0.555593 0.0158751)
(-0.0281397 0.555154 0.0163171)
(-0.0278821 0.554713 0.0167534)
(-0.0276188 0.55427 0.017184)
(-0.0273498 0.553824 0.017609)
(-0.0270752 0.553377 0.0180283)
(-0.0267952 0.552927 0.0184419)
(-0.0265098 0.552476 0.0188498)
(-0.0262192 0.552023 0.0192521)
(-0.0259233 0.551569 0.0196487)
(-0.0256223 0.551113 0.0200395)
(-0.0253164 0.550655 0.0204247)
(-0.0250054 0.550196 0.0208042)
(-0.0246896 0.549736 0.021178)
(-0.0243691 0.549274 0.0215461)
(-0.0240438 0.548811 0.0219085)
(-0.0237139 0.548347 0.0222652)
(-0.0233795 0.547882 0.0226161)
(-0.0230405 0.547416 0.0229613)
(-0.0226971 0.546949 0.0233008)
(-0.0223494 0.546481 0.0236346)
(-0.0219973 0.546012 0.0239626)
(-0.021641 0.545542 0.0242849)
(-0.0212806 0.545072 0.0246013)
(-0.020916 0.544601 0.024912)
(-0.0205473 0.544129 0.025217)
(-0.0201747 0.543657 0.0255161)
(-0.0197981 0.543184 0.0258094)
(-0.0194176 0.542711 0.0260968)
(-0.0190333 0.542237 0.0263785)
(-0.0186451 0.541763 0.0266542)
(-0.0182533 0.541289 0.0269241)
(-0.0178577 0.540814 0.0271881)
(-0.0174585 0.540339 0.0274461)
(-0.0170556 0.539864 0.0276983)
(-0.0166492 0.539389 0.0279444)
(-0.0162394 0.538914 0.0281846)
(-0.015826 0.538439 0.0284187)
(-0.0154092 0.537964 0.0286469)
(-0.0149891 0.537489 0.0288689)
(-0.0145655 0.537015 0.0290849)
(-0.0141388 0.53654 0.0292948)
(-0.0137087 0.536066 0.0294985)
(-0.0132754 0.535592 0.029696)
(-0.012839 0.535118 0.0298872)
(-0.0123994 0.534645 0.0300723)
(-0.0119568 0.534172 0.030251)
(-0.011511 0.5337 0.0304234)
(-0.0110623 0.533229 0.0305894)
(-0.0106105 0.532758 0.030749)
(-0.0101559 0.532287 0.0309022)
(-0.00969832 0.531818 0.0310488)
(-0.00923789 0.531349 0.0311889)
(-0.00877464 0.530881 0.0313224)
(-0.0083086 0.530414 0.0314492)
(-0.00783982 0.529948 0.0315694)
(-0.00736833 0.529483 0.0316827)
(-0.00689418 0.529019 0.0317893)
(-0.0064174 0.528556 0.0318889)
(-0.00593803 0.528095 0.0319817)
(-0.00545612 0.527634 0.0320674)
(-0.00497171 0.527176 0.0321461)
(-0.00448484 0.526718 0.0322176)
(-0.00399556 0.526262 0.0322819)
(-0.00350391 0.525808 0.032339)
(-0.00300993 0.525355 0.0323887)
(-0.00251368 0.524904 0.032431)
(-0.00201519 0.524455 0.0324658)
(-0.00151453 0.524008 0.032493)
(-0.00101174 0.523563 0.0325125)
(-0.000506881 0.52312 0.0325243)
(0.0259555 0.520143 -0.0196061)
(0.0257653 0.520697 -0.0198554)
(0.0255731 0.521252 -0.0201023)
(0.0253791 0.521807 -0.0203467)
(0.0251833 0.522363 -0.0205886)
(0.0249857 0.522919 -0.020828)
(0.0247862 0.523476 -0.0210649)
(0.0249324 0.52444 -0.0208917)
(0.0252713 0.524852 -0.0204805)
(0.0256018 0.525266 -0.0200658)
(0.0259239 0.525684 -0.0196478)
(0.0262378 0.526105 -0.0192267)
(0.0265433 0.526529 -0.0188026)
(0.0268407 0.526956 -0.0183756)
(0.02713 0.527386 -0.0179458)
(0.0274111 0.527819 -0.0175133)
(0.0276843 0.528254 -0.0170783)
(0.0279495 0.528691 -0.0166408)
(0.0282067 0.529131 -0.0162009)
(0.0284561 0.529573 -0.0157588)
(0.0286976 0.530018 -0.0153145)
(0.0289314 0.530464 -0.0148682)
(0.0291574 0.530912 -0.0144198)
(0.0293758 0.531363 -0.0139696)
(0.0295865 0.531815 -0.0135175)
(0.0297897 0.532268 -0.0130637)
(0.0299853 0.532724 -0.0126083)
(0.0301734 0.533181 -0.0121512)
(0.030354 0.533639 -0.0116927)
(0.0305272 0.534099 -0.0112327)
(0.0306931 0.534561 -0.0107714)
(0.0308515 0.535023 -0.0103088)
(0.0310026 0.535487 -0.00984498)
(0.0311465 0.535952 -0.00937999)
(0.0312831 0.536418 -0.0089139)
(0.0314124 0.536885 -0.00844678)
(0.0315345 0.537354 -0.0079787)
(0.0316495 0.537822 -0.0075097)
(0.0317573 0.538292 -0.00703986)
(0.031858 0.538763 -0.00656922)
(0.0319516 0.539234 -0.00609786)
(0.0320381 0.539706 -0.00562582)
(0.0321175 0.540179 -0.00515315)
(0.0321898 0.540652 -0.00467992)
(0.0322552 0.541126 -0.00420618)
(0.0323135 0.5416 -0.00373198)
(0.0323647 0.542075 -0.00325738)
(0.032409 0.54255 -0.00278242)
(0.0324463 0.543025 -0.00230716)
(0.0324766 0.5435 -0.00183166)
(0.0325 0.543976 -0.00135596)
(0.0325163 0.544452 -0.000880109)
(0.0325257 0.544928 -0.000404168)
(0.0325282 0.545404 7.1817e-05)
(0.0325236 0.54588 0.000547794)
(0.0325121 0.546356 0.00102371)
(0.0324937 0.546832 0.00149952)
(0.0324682 0.547307 0.00197517)
(0.0324358 0.547783 0.0024506)
(0.0323964 0.548258 0.00292578)
(0.03235 0.548733 0.00340063)
(0.0322966 0.549207 0.00387512)
(0.0322362 0.549681 0.00434919)
(0.0321687 0.550155 0.00482278)
(0.0320943 0.550628 0.00529584)
(0.0320127 0.5511 0.00576833)
(0.0319241 0.551572 0.00624017)
(0.0318284 0.552043 0.00671132)
(0.0317255 0.552514 0.00718172)
(0.0316156 0.552984 0.00765132)
(0.0314985 0.553452 0.00812004)
(0.0313741 0.55392 0.00858784)
(0.0312426 0.554387 0.00905466)
(0.0311038 0.554853 0.00952042)
(0.0309578 0.555317 0.00998507)
(0.0308045 0.555781 0.0104485)
(0.0306438 0.556243 0.0109108)
(0.0304758 0.556704 0.0113717)
(0.0303003 0.557163 0.0118312)
(0.0301174 0.557621 0.0122893)
(0.0299271 0.558078 0.0127459)
(0.0297292 0.558533 0.0132008)
(0.0295238 0.558986 0.0136541)
(0.0293107 0.559438 0.0141056)
(0.02909 0.559888 0.0145553)
(0.0288617 0.560335 0.0150031)
(0.0286255 0.560781 0.0154488)
(0.0283816 0.561225 0.0158924)
(0.0281299 0.561666 0.0163339)
(0.0278703 0.562105 0.0167731)
(0.0276027 0.562542 0.0172098)
(0.0273271 0.562976 0.0176441)
(0.0270435 0.563408 0.0180758)
(0.0267518 0.563837 0.0185048)
(0.026452 0.564263 0.0189309)
(0.0259555 0.564132 0.0196061)
(0.0257653 0.563578 0.0198554)
(0.0255731 0.563023 0.0201023)
(0.0253791 0.562468 0.0203467)
(0.0251833 0.561912 0.0205886)
(0.0249857 0.561356 0.020828)
(0.0247862 0.560799 0.0210649)
(0.0249324 0.559835 0.0208917)
(0.0252713 0.559423 0.0204805)
(0.0256018 0.559009 0.0200658)
(0.0259239 0.558591 0.0196478)
(0.0262378 0.55817 0.0192267)
(0.0265433 0.557746 0.0188026)
(0.0268407 0.557319 0.0183756)
(0.02713 0.556889 0.0179458)
(0.0274111 0.556456 0.0175133)
(0.0276843 0.556021 0.0170783)
(0.0279495 0.555584 0.0166408)
(0.0282067 0.555144 0.0162009)
(0.0284561 0.554702 0.0157588)
(0.0286976 0.554258 0.0153145)
(0.0289314 0.553811 0.0148682)
(0.0291574 0.553363 0.0144198)
(0.0293758 0.552913 0.0139696)
(0.0295865 0.55246 0.0135175)
(0.0297897 0.552007 0.0130637)
(0.0299853 0.551551 0.0126083)
(0.0301734 0.551094 0.0121512)
(0.030354 0.550636 0.0116927)
(0.0305272 0.550176 0.0112327)
(0.0306931 0.549714 0.0107714)
(0.0308515 0.549252 0.0103088)
(0.0310026 0.548788 0.00984498)
(0.0311465 0.548323 0.00937999)
(0.0312831 0.547857 0.0089139)
(0.0314124 0.54739 0.00844678)
(0.0315345 0.546922 0.0079787)
(0.0316495 0.546453 0.0075097)
(0.0317573 0.545983 0.00703986)
(0.031858 0.545512 0.00656922)
(0.0319516 0.545041 0.00609786)
(0.0320381 0.544569 0.00562582)
(0.0321175 0.544096 0.00515315)
(0.0321898 0.543623 0.00467992)
(0.0322552 0.543149 0.00420618)
(0.0323135 0.542675 0.00373198)
(0.0323647 0.5422 0.00325738)
(0.032409 0.541725 0.00278242)
(0.0324463 0.54125 0.00230716)
(0.0324766 0.540775 0.00183166)
(0.0325 0.540299 0.00135596)
(0.0325163 0.539823 0.000880109)
(0.0325257 0.539347 0.000404168)
(0.0325282 0.538871 -7.1817e-05)
(0.0325236 0.538395 -0.000547794)
(0.0325121 0.537919 -0.00102371)
(0.0324937 0.537444 -0.00149952)
(0.0324682 0.536968 -0.00197517)
(0.0324358 0.536492 -0.0024506)
(0.0323964 0.536017 -0.00292578)
(0.03235 0.535542 -0.00340063)
(0.0322966 0.535068 -0.00387512)
(0.0322362 0.534594 -0.00434919)
(0.0321687 0.53412 -0.00482278)
(0.0320943 0.533647 -0.00529584)
(0.0320127 0.533175 -0.00576833)
(0.0319241 0.532703 -0.00624017)
(0.0318284 0.532232 -0.00671132)
(0.0317255 0.531761 -0.00718172)
(0.0316156 0.531292 -0.00765132)
(0.0314985 0.530823 -0.00812004)
(0.0313741 0.530355 -0.00858784)
(0.0312426 0.529888 -0.00905466)
(0.0311038 0.529423 -0.00952042)
(0.0309578 0.528958 -0.00998507)
(0.0308045 0.528494 -0.0104485)
(0.0306438 0.528032 -0.0109108)
(0.0304758 0.527571 -0.0113717)
(0.0303003 0.527112 -0.0118312)
(0.0301174 0.526654 -0.0122893)
(0.0299271 0.526197 -0.0127459)
(0.0297292 0.525742 -0.0132008)
(0.0295238 0.525289 -0.0136541)
(0.0293107 0.524837 -0.0141056)
(0.02909 0.524388 -0.0145553)
(0.0288617 0.52394 -0.0150031)
(0.0286255 0.523494 -0.0154488)
(0.0283816 0.52305 -0.0158924)
(0.0281299 0.522609 -0.0163339)
(0.0278703 0.52217 -0.0167731)
(0.0276027 0.521733 -0.0172098)
(0.0273271 0.521299 -0.0176441)
(0.0270435 0.520867 -0.0180758)
(0.0267518 0.520438 -0.0185048)
(0.026452 0.520012 -0.0189309)
(-0.0299571 0.520143 -0.0126751)
(-0.0300779 0.520697 -0.0123856)
(-0.0301957 0.521252 -0.0120958)
(-0.0303103 0.521807 -0.0118056)
(-0.0304219 0.522363 -0.0115151)
(-0.0305304 0.522919 -0.0112242)
(-0.0306359 0.523476 -0.010933)
(-0.0305589 0.52444 -0.0111462)
(-0.0303722 0.524852 -0.0116454)
(-0.0301784 0.525266 -0.0121389)
(-0.0299775 0.525684 -0.0126269)
(-0.0297697 0.526105 -0.0131092)
(-0.0295552 0.526529 -0.0135859)
(-0.0293341 0.526956 -0.0140569)
(-0.0291065 0.527386 -0.0145223)
(-0.0288726 0.527819 -0.0149821)
(-0.0286324 0.528254 -0.0154362)
(-0.0283861 0.528691 -0.0158845)
(-0.0281338 0.529131 -0.0163272)
(-0.0278756 0.529573 -0.0167643)
(-0.0276116 0.530018 -0.0171956)
(-0.0273419 0.530464 -0.0176212)
(-0.0270666 0.530912 -0.0180412)
(-0.0267859 0.531363 -0.0184554)
(-0.0264998 0.531815 -0.0188639)
(-0.0262084 0.532268 -0.0192668)
(-0.0259117 0.532724 -0.0196639)
(-0.02561 0.533181 -0.0200553)
(-0.0253032 0.533639 -0.020441)
(-0.0249915 0.534099 -0.020821)
(-0.0246749 0.534561 -0.0211952)
(-0.0243535 0.535023 -0.0215638)
(-0.0240273 0.535487 -0.0219266)
(-0.0236965 0.535952 -0.0222836)
(-0.0233612 0.536418 -0.022635)
(-0.0230213 0.536885 -0.0229806)
(-0.022677 0.537354 -0.0233204)
(-0.0223284 0.537822 -0.0236544)
(-0.0219754 0.538292 -0.0239827)
(-0.0216181 0.538763 -0.0243052)
(-0.0212567 0.539234 -0.024622)
(-0.0208911 0.539706 -0.0249329)
(-0.0205215 0.540179 -0.025238)
(-0.0201479 0.540652 -0.0255373)
(-0.0197702 0.541126 -0.0258307)
(-0.0193887 0.5416 -0.0261183)
(-0.0190033 0.542075 -0.0264)
(-0.0186142 0.54255 -0.0266758)
(-0.0182212 0.543025 -0.0269458)
(-0.0178246 0.5435 -0.0272098)
(-0.0174243 0.543976 -0.0274678)
(-0.0170204 0.544452 -0.0277199)
(-0.0166129 0.544928 -0.027966)
(-0.0162019 0.545404 -0.0282061)
(-0.0157874 0.54588 -0.0284402)
(-0.0153695 0.546356 -0.0286682)
(-0.0149482 0.546832 -0.0288901)
(-0.0145236 0.547307 -0.0291059)
(-0.0140956 0.547783 -0.0293155)
(-0.0136644 0.548258 -0.029519)
(-0.01323 0.548733 -0.0297162)
(-0.0127923 0.549207 -0.0299072)
(-0.0123516 0.549681 -0.030092)
(-0.0119077 0.550155 -0.0302703)
(-0.0114608 0.550628 -0.0304424)
(-0.0110108 0.5511 -0.030608)
(-0.0105579 0.551572 -0.0307672)
(-0.010102 0.552043 -0.0309198)
(-0.00964322 0.552514 -0.031066)
(-0.00918155 0.552984 -0.0312055)
(-0.00871706 0.553452 -0.0313385)
(-0.00824978 0.55392 -0.0314647)
(-0.00777974 0.554387 -0.0315842)
(-0.00730699 0.554853 -0.0316969)
(-0.00683158 0.555317 -0.0318028)
(-0.00635353 0.555781 -0.0319017)
(-0.00587289 0.556243 -0.0319937)
(-0.0053897 0.556704 -0.0320786)
(-0.00490401 0.557163 -0.0321565)
(-0.00441586 0.557621 -0.0322271)
(-0.00392529 0.558078 -0.0322906)
(-0.00343235 0.558533 -0.0323467)
(-0.00293707 0.558986 -0.0323954)
(-0.00243953 0.559438 -0.0324367)
(-0.00193975 0.559888 -0.0324704)
(-0.00143779 0.560335 -0.0324965)
(-0.000933707 0.560781 -0.0325149)
(-0.000427549 0.561225 -0.0325254)
(8.0627e-05 0.561666 -0.0325282)
(0.000590763 0.562105 -0.0325229)
(0.0011028 0.562542 -0.0325096)
(0.00161667 0.562976 -0.0324881)
(0.00213232 0.563408 -0.0324583)
(0.00264967 0.563837 -0.0324202)
(0.00316866 0.564263 -0.0323736)
(0.00400157 0.564132 -0.0322812)
(0.00431268 0.563578 -0.0322411)
(0.00462255 0.563023 -0.0321981)
(0.00493118 0.562468 -0.0321523)
(0.00523857 0.561912 -0.0321037)
(0.00554473 0.561356 -0.0320522)
(0.00584964 0.560799 -0.0319979)
(0.00562655 0.559835 -0.0320379)
(0.00510094 0.559423 -0.0321258)
(0.00457658 0.559009 -0.0322047)
(0.00405356 0.558591 -0.0322747)
(0.00353197 0.55817 -0.0323359)
(0.00301188 0.557746 -0.0323885)
(0.00249338 0.557319 -0.0324325)
(0.00197654 0.556889 -0.0324682)
(0.00146142 0.556456 -0.0324954)
(0.000948092 0.556021 -0.0325144)
(0.000436622 0.555584 -0.0325253)
(-7.29286e-05 0.555144 -0.0325282)
(-0.000580502 0.554702 -0.0325231)
(-0.00108604 0.554258 -0.0325101)
(-0.00158949 0.553811 -0.0324894)
(-0.00209079 0.553363 -0.032461)
(-0.0025899 0.552913 -0.032425)
(-0.00308677 0.55246 -0.0323815)
(-0.00358134 0.552007 -0.0323305)
(-0.00407357 0.551551 -0.0322722)
(-0.00456342 0.551094 -0.0322066)
(-0.00505084 0.550636 -0.0321337)
(-0.00553577 0.550176 -0.0320537)
(-0.0060182 0.549714 -0.0319667)
(-0.00649806 0.549252 -0.0318726)
(-0.00697532 0.548788 -0.0317716)
(-0.00744993 0.548323 -0.0316636)
(-0.00792187 0.547857 -0.0315489)
(-0.00839107 0.54739 -0.0314273)
(-0.00885752 0.546922 -0.0312991)
(-0.00932117 0.546453 -0.0311641)
(-0.00978197 0.545983 -0.0310226)
(-0.0102399 0.545512 -0.0308745)
(-0.0106949 0.545041 -0.0307198)
(-0.0111469 0.544569 -0.0305587)
(-0.011596 0.544096 -0.0303911)
(-0.012042 0.543623 -0.0302172)
(-0.0124849 0.543149 -0.0300369)
(-0.0129247 0.542675 -0.0298503)
(-0.0133614 0.5422 -0.0296574)
(-0.0137949 0.541725 -0.0294583)
(-0.0142251 0.54125 -0.0292529)
(-0.0146521 0.540775 -0.0290414)
(-0.0150757 0.540299 -0.0288238)
(-0.015496 0.539823 -0.0286)
(-0.0159128 0.539347 -0.0283702)
(-0.0163263 0.538871 -0.0281343)
(-0.0167362 0.538395 -0.0278924)
(-0.0171426 0.537919 -0.0276445)
(-0.0175455 0.537444 -0.0273906)
(-0.0179447 0.536968 -0.0271307)
(-0.0183402 0.536492 -0.0268649)
(-0.018732 0.536017 -0.0265932)
(-0.01912 0.535542 -0.0263156)
(-0.0195043 0.535068 -0.0260321)
(-0.0198846 0.534594 -0.0257428)
(-0.020261 0.53412 -0.0254476)
(-0.0206335 0.533647 -0.0251465)
(-0.0210019 0.533175 -0.0248397)
(-0.0213662 0.532703 -0.024527)
(-0.0217264 0.532232 -0.0242085)
(-0.0220823 0.531761 -0.0238843)
(-0.022434 0.531292 -0.0235542)
(-0.0227814 0.530823 -0.0232184)
(-0.0231244 0.530355 -0.0228769)
(-0.0234629 0.529888 -0.0225296)
(-0.0237969 0.529423 -0.0221765)
(-0.0241262 0.528958 -0.0218177)
(-0.0244509 0.528494 -0.0214532)
(-0.0247709 0.528032 -0.0210829)
(-0.0250861 0.527571 -0.0207069)
(-0.0253963 0.527112 -0.0203252)
(-0.0257016 0.526654 -0.0199378)
(-0.0260018 0.526197 -0.0195447)
(-0.0262969 0.525742 -0.0191458)
(-0.0265867 0.525289 -0.0187413)
(-0.0268712 0.524837 -0.018331)
(-0.0271503 0.524388 -0.0179151)
(-0.0274239 0.52394 -0.0174934)
(-0.0276918 0.523494 -0.017066)
(-0.0279541 0.52305 -0.016633)
(-0.0282105 0.522609 -0.0161943)
(-0.028461 0.52217 -0.0157498)
(-0.0287055 0.521733 -0.0152997)
(-0.0289438 0.521299 -0.014844)
(-0.0291759 0.520867 -0.0143825)
(-0.0294015 0.520438 -0.0139154)
(-0.0296206 0.520012 -0.0134426)
(-0.0914696 0.219114 0.00225891)
(-0.0908035 0.219114 0.00225891)
(-0.0901373 0.219114 0.00225891)
(-0.0894712 0.219114 0.00225891)
(-0.0888051 0.219114 0.00225891)
(-0.088139 0.219114 0.00225891)
(-0.0874728 0.219114 0.00225891)
(-0.0868067 0.219114 0.00225891)
(-0.0861406 0.219114 0.00225891)
(-0.0854745 0.219114 0.00225891)
(-0.0848083 0.219114 0.00225891)
(-0.0841422 0.219114 0.00225891)
(-0.0834761 0.219114 0.00225891)
(-0.08281 0.219114 0.00225891)
(-0.0821439 0.219114 0.00225891)
(-0.0814777 0.219114 0.00225891)
(-0.0808116 0.219114 0.00225891)
(-0.0801455 0.219114 0.00225891)
(-0.0794794 0.219114 0.00225891)
(-0.0788132 0.219114 0.00225891)
(-0.0781471 0.219114 0.00225891)
(-0.077481 0.219114 0.00225891)
(-0.0768149 0.219114 0.00225891)
(-0.0761487 0.219114 0.00225891)
(-0.0754826 0.219114 0.00225891)
(-0.0748165 0.219114 0.00225891)
(-0.0741504 0.219114 0.00225891)
(-0.0734842 0.219114 0.00225891)
(-0.0728181 0.219114 0.00225891)
(-0.072152 0.219114 0.00225891)
(-0.0714859 0.219114 0.00225891)
(-0.0708198 0.219114 0.00225891)
(-0.0701536 0.219114 0.00225891)
(-0.0694875 0.219114 0.00225891)
(-0.0688214 0.219114 0.00225891)
(-0.0681553 0.219114 0.00225891)
(-0.0674891 0.219114 0.00225891)
(-0.066823 0.219114 0.00225891)
(-0.0661569 0.219114 0.00225891)
(-0.0654908 0.219114 0.00225891)
(-0.0648246 0.219114 0.00225891)
(-0.0641585 0.219114 0.00225891)
(-0.0634924 0.219114 0.00225891)
(-0.0628263 0.219114 0.00225891)
(-0.0621602 0.219114 0.00225891)
(-0.061494 0.219114 0.00225891)
(-0.0608279 0.219114 0.00225891)
(-0.0601618 0.219114 0.00225891)
(-0.0594957 0.219114 0.00225891)
(-0.0588295 0.219114 0.00225891)
(-0.0581634 0.219114 0.00225891)
(-0.0574973 0.219114 0.00225891)
(-0.0568312 0.219114 0.00225891)
(-0.0561651 0.219114 0.00225891)
(-0.0554989 0.219114 0.00225891)
(-0.0548328 0.219114 0.00225891)
(-0.0541897 0.219114 0.00161373)
(-0.0542051 0.219114 0.000968332)
(-0.0542128 0.219114 0.000322793)
(-0.0542128 0.219114 -0.000322793)
(-0.0542051 0.219114 -0.000968332)
(-0.0541897 0.219114 -0.00161373)
(-0.0548328 0.219114 -0.00225891)
(-0.0554989 0.219114 -0.00225891)
(-0.0561651 0.219114 -0.00225891)
(-0.0568312 0.219114 -0.00225891)
(-0.0574973 0.219114 -0.00225891)
(-0.0581634 0.219114 -0.00225891)
(-0.0588295 0.219114 -0.00225891)
(-0.0594957 0.219114 -0.00225891)
(-0.0601618 0.219114 -0.00225891)
(-0.0608279 0.219114 -0.00225891)
(-0.061494 0.219114 -0.00225891)
(-0.0621602 0.219114 -0.00225891)
(-0.0628263 0.219114 -0.00225891)
(-0.0634924 0.219114 -0.00225891)
(-0.0641585 0.219114 -0.00225891)
(-0.0648246 0.219114 -0.00225891)
(-0.0654908 0.219114 -0.00225891)
(-0.0661569 0.219114 -0.00225891)
(-0.066823 0.219114 -0.00225891)
(-0.0674891 0.219114 -0.00225891)
(-0.0681553 0.219114 -0.00225891)
(-0.0688214 0.219114 -0.00225891)
(-0.0694875 0.219114 -0.00225891)
(-0.0701536 0.219114 -0.00225891)
(-0.0708198 0.219114 -0.00225891)
(-0.0714859 0.219114 -0.00225891)
(-0.072152 0.219114 -0.00225891)
(-0.0728181 0.219114 -0.00225891)
(-0.0734842 0.219114 -0.00225891)
(-0.0741504 0.219114 -0.00225891)
(-0.0748165 0.219114 -0.00225891)
(-0.0754826 0.219114 -0.00225891)
(-0.0761487 0.219114 -0.00225891)
(-0.0768149 0.219114 -0.00225891)
(-0.077481 0.219114 -0.00225891)
(-0.0781471 0.219114 -0.00225891)
(-0.0788132 0.219114 -0.00225891)
(-0.0794794 0.219114 -0.00225891)
(-0.0801455 0.219114 -0.00225891)
(-0.0808116 0.219114 -0.00225891)
(-0.0814777 0.219114 -0.00225891)
(-0.0821439 0.219114 -0.00225891)
(-0.08281 0.219114 -0.00225891)
(-0.0834761 0.219114 -0.00225891)
(-0.0841422 0.219114 -0.00225891)
(-0.0848083 0.219114 -0.00225891)
(-0.0854745 0.219114 -0.00225891)
(-0.0861406 0.219114 -0.00225891)
(-0.0868067 0.219114 -0.00225891)
(-0.0874728 0.219114 -0.00225891)
(-0.088139 0.219114 -0.00225891)
(-0.0888051 0.219114 -0.00225891)
(-0.0894712 0.219114 -0.00225891)
(-0.0901373 0.219114 -0.00225891)
(-0.0908035 0.219114 -0.00225891)
(-0.0914696 0.219114 -0.00225891)
(-0.0476911 0.219114 -0.0780855)
(-0.047358 0.219114 -0.0775087)
(-0.0470249 0.219114 -0.0769318)
(-0.0466919 0.219114 -0.0763549)
(-0.0463588 0.219114 -0.075778)
(-0.0460257 0.219114 -0.0752011)
(-0.0456927 0.219114 -0.0746242)
(-0.0453596 0.219114 -0.0740474)
(-0.0450266 0.219114 -0.0734705)
(-0.0446935 0.219114 -0.0728936)
(-0.0443604 0.219114 -0.0723167)
(-0.0440274 0.219114 -0.0717399)
(-0.0436943 0.219114 -0.071163)
(-0.0433613 0.219114 -0.0705861)
(-0.0430282 0.219114 -0.0700092)
(-0.0426951 0.219114 -0.0694323)
(-0.0423621 0.219114 -0.0688554)
(-0.042029 0.219114 -0.0682786)
(-0.0416959 0.219114 -0.0677017)
(-0.0413629 0.219114 -0.0671248)
(-0.0410298 0.219114 -0.0665479)
(-0.0406968 0.219114 -0.065971)
(-0.0403637 0.219114 -0.0653942)
(-0.0400306 0.219114 -0.0648173)
(-0.0396976 0.219114 -0.0642404)
(-0.0393645 0.219114 -0.0636635)
(-0.0390315 0.219114 -0.0630867)
(-0.0386984 0.219114 -0.0625098)
(-0.0383653 0.219114 -0.0619329)
(-0.0380323 0.219114 -0.061356)
(-0.0376992 0.219114 -0.0607791)
(-0.0373662 0.219114 -0.0602023)
(-0.0370331 0.219114 -0.0596254)
(-0.0367 0.219114 -0.0590485)
(-0.036367 0.219114 -0.0584716)
(-0.0360339 0.219114 -0.0578947)
(-0.0357008 0.219114 -0.0573179)
(-0.0353678 0.219114 -0.056741)
(-0.0350347 0.219114 -0.0561641)
(-0.0347017 0.219114 -0.0555872)
(-0.0343686 0.219114 -0.0550103)
(-0.0340355 0.219114 -0.0544335)
(-0.0337025 0.219114 -0.0538566)
(-0.0333694 0.219114 -0.0532797)
(-0.0330364 0.219114 -0.0527028)
(-0.0327033 0.219114 -0.0521259)
(-0.0323702 0.219114 -0.0515491)
(-0.0320372 0.219114 -0.0509722)
(-0.0317041 0.219114 -0.0503953)
(-0.031371 0.219114 -0.0498184)
(-0.031038 0.219114 -0.0492415)
(-0.0307049 0.219114 -0.0486647)
(-0.0303719 0.219114 -0.0480878)
(-0.0300388 0.219114 -0.0475109)
(-0.0297057 0.219114 -0.046934)
(-0.0293727 0.219114 -0.0463571)
(-0.0284924 0.219114 -0.0461228)
(-0.0279412 0.219114 -0.0464588)
(-0.0273859 0.219114 -0.0467883)
(-0.0268268 0.219114 -0.0471111)
(-0.026264 0.219114 -0.0474272)
(-0.0256973 0.219114 -0.0477366)
(-0.0254601 0.219114 -0.0486161)
(-0.0257932 0.219114 -0.0491929)
(-0.0261263 0.219114 -0.0497698)
(-0.0264593 0.219114 -0.0503467)
(-0.0267924 0.219114 -0.0509236)
(-0.0271254 0.219114 -0.0515005)
(-0.0274585 0.219114 -0.0520773)
(-0.0277916 0.219114 -0.0526542)
(-0.0281246 0.219114 -0.0532311)
(-0.0284577 0.219114 -0.053808)
(-0.0287907 0.219114 -0.0543848)
(-0.0291238 0.219114 -0.0549617)
(-0.0294569 0.219114 -0.0555386)
(-0.0297899 0.219114 -0.0561155)
(-0.030123 0.219114 -0.0566924)
(-0.030456 0.219114 -0.0572692)
(-0.0307891 0.219114 -0.0578461)
(-0.0311222 0.219114 -0.058423)
(-0.0314552 0.219114 -0.0589999)
(-0.0317883 0.219114 -0.0595768)
(-0.0321214 0.219114 -0.0601536)
(-0.0324544 0.219114 -0.0607305)
(-0.0327875 0.219114 -0.0613074)