/*--------------------------------*- C++ -*----------------------------------*\
  =========                 |
  \\      /  F ield         | OpenFOAM: The Open Source CFD Toolbox
   \\    /   O peration     | Website:  https://openfoam.org
    \\  /    A nd           | Version:  10
     \\/     M anipulation  |
\*---------------------------------------------------------------------------*/
FoamFile
{
    format      ascii;
    class       featureEdgeMesh;
    location    "constant/triSurface";
    object      blades.eMesh;
}
// * * * * * * * * * * * * * * * * * * * * * * * * * * * * * * * * * * * * * //


// points:

8419
(
(-0.503167 0.905897 -0.0104849)
(-0.251419 0.905897 -0.0104849)
(-0.251419 0.905897 0.0104849)
(-0.503167 0.905897 0.0104849)
(-0.503167 1.10721 -0.0104849)
(-0.251419 1.10721 -0.0104849)
(-0.251419 1.01704 -0.0104849)
(-0.251419 0.996067 -0.0104849)
(-0.251419 0.996067 0.0104849)
(-0.503167 1.10721 0.0104849)
(-0.251419 1.01704 0.0104849)
(-0.251419 1.10721 0.0104849)
(0.251419 0.905897 -0.0104849)
(0.503167 0.905897 -0.0104849)
(0.503167 0.905897 0.0104849)
(0.251419 0.905897 0.0104849)
(0.251419 0.996067 -0.0104849)
(0.251419 1.01704 -0.0104849)
(0.251419 1.10721 -0.0104849)
(0.503167 1.10721 -0.0104849)
(0.503167 1.10721 0.0104849)
(0.251419 0.996067 0.0104849)
(0.251419 1.10721 0.0104849)
(0.251419 1.01704 0.0104849)
(-0.260664 0.905897 0.430513)
(-0.13479 0.905897 0.212493)
(-0.11663 0.905897 0.222978)
(-0.242503 0.905897 0.440998)
(-0.260664 1.10721 0.430513)
(-0.13479 1.10721 0.212493)
(-0.13479 1.01704 0.212493)
(-0.13479 0.996067 0.212493)
(-0.11663 0.996067 0.222978)
(-0.242503 1.10721 0.440998)
(-0.11663 1.01704 0.222978)
(-0.11663 1.10721 0.222978)
(0.11663 0.905897 -0.222978)
(0.242503 0.905897 -0.440998)
(0.260664 0.905897 -0.430513)
(0.13479 0.905897 -0.212493)
(0.11663 0.996067 -0.222978)
(0.11663 1.01704 -0.222978)
(0.11663 1.10721 -0.222978)
(0.242503 1.10721 -0.440998)
(0.260664 1.10721 -0.430513)
(0.13479 0.996067 -0.212493)
(0.13479 1.10721 -0.212493)
(0.13479 1.01704 -0.212493)
(0.242503 0.905897 0.440998)
(0.11663 0.905897 0.222978)
(0.13479 0.905897 0.212493)
(0.260664 0.905897 0.430513)
(0.242503 1.10721 0.440998)
(0.11663 1.10721 0.222978)
(0.11663 1.01704 0.222978)
(0.11663 0.996067 0.222978)
(0.13479 0.996067 0.212493)
(0.260664 1.10721 0.430513)
(0.13479 1.01704 0.212493)
(0.13479 1.10721 0.212493)
(-0.13479 0.905897 -0.212493)
(-0.260664 0.905897 -0.430513)
(-0.242503 0.905897 -0.440998)
(-0.11663 0.905897 -0.222978)
(-0.13479 0.996067 -0.212493)
(-0.13479 1.01704 -0.212493)
(-0.13479 1.10721 -0.212493)
(-0.260664 1.10721 -0.430513)
(-0.242503 1.10721 -0.440998)
(-0.11663 0.996067 -0.222978)
(-0.11663 1.10721 -0.222978)
(-0.11663 1.01704 -0.222978)
(0.114114 2.43234 -0.0988631)
(0.301966 2.2818 -0.249405)
(0.301966 2.26697 -0.234578)
(0.121349 2.41172 -0.0898339)
(0.121349 2.62104 0.0898339)
(0.301966 2.76578 0.234578)
(0.301966 2.75096 0.249405)
(0.114114 2.60041 0.0988631)
(-0.142675 2.43234 -0.0493937)
(-0.366974 2.2818 -0.136807)
(-0.354133 2.26697 -0.144221)
(-0.138473 2.41172 -0.0601747)
(0.0171238 2.62104 -0.150009)
(0.0521673 2.76578 -0.378799)
(0.0650086 2.75096 -0.386213)
(0.0285612 2.60041 -0.148257)
(0.0285612 2.43234 0.148257)
(0.0650086 2.2818 0.386213)
(0.0521673 2.26697 0.378799)
(0.0171238 2.41172 0.150009)
(-0.138473 2.62104 0.0601747)
(-0.354133 2.76578 0.144221)
(-0.366974 2.75096 0.136807)
(-0.142675 2.60041 0.0493937)
(-0.427656 1.01704 -0.0104849)
(-0.427656 0.996067 -0.0104849)
(-0.427656 0.996067 0.0104849)
(-0.427656 1.01704 0.0104849)
(0.427656 0.996067 -0.0104849)
(0.427656 1.01704 -0.0104849)
(0.427656 1.01704 0.0104849)
(0.427656 0.996067 0.0104849)
(-0.222908 1.01704 0.365119)
(-0.222908 0.996067 0.365119)
(-0.204748 0.996067 0.375603)
(-0.204748 1.01704 0.375603)
(0.204748 0.996067 -0.375603)
(0.204748 1.01704 -0.375603)
(0.222908 1.01704 -0.365119)
(0.222908 0.996067 -0.365119)
(0.204748 1.01704 0.375603)
(0.204748 0.996067 0.375603)
(0.222908 0.996067 0.365119)
(0.222908 1.01704 0.365119)
(-0.222908 0.996067 -0.365119)
(-0.222908 1.01704 -0.365119)
(-0.204748 1.01704 -0.375603)
(-0.204748 0.996067 -0.375603)
(-0.500059 0.905897 -0.0104849)
(-0.50322 0.905897 -0.00748949)
(-0.496951 0.905897 -0.0104849)
(-0.493843 0.905897 -0.0104849)
(-0.490735 0.905897 -0.0104849)
(-0.487627 0.905897 -0.0104849)
(-0.484519 0.905897 -0.0104849)
(-0.481411 0.905897 -0.0104849)
(-0.478303 0.905897 -0.0104849)
(-0.475195 0.905897 -0.0104849)
(-0.472087 0.905897 -0.0104849)
(-0.468979 0.905897 -0.0104849)
(-0.465871 0.905897 -0.0104849)
(-0.462763 0.905897 -0.0104849)
(-0.459655 0.905897 -0.0104849)
(-0.456547 0.905897 -0.0104849)
(-0.453439 0.905897 -0.0104849)
(-0.450331 0.905897 -0.0104849)
(-0.447223 0.905897 -0.0104849)
(-0.444115 0.905897 -0.0104849)
(-0.441007 0.905897 -0.0104849)
(-0.437899 0.905897 -0.0104849)
(-0.434791 0.905897 -0.0104849)
(-0.431683 0.905897 -0.0104849)
(-0.428575 0.905897 -0.0104849)
(-0.425467 0.905897 -0.0104849)
(-0.422359 0.905897 -0.0104849)
(-0.419251 0.905897 -0.0104849)
(-0.416143 0.905897 -0.0104849)
(-0.413035 0.905897 -0.0104849)
(-0.409927 0.905897 -0.0104849)
(-0.406819 0.905897 -0.0104849)
(-0.403711 0.905897 -0.0104849)
(-0.400603 0.905897 -0.0104849)
(-0.397495 0.905897 -0.0104849)
(-0.394387 0.905897 -0.0104849)
(-0.391279 0.905897 -0.0104849)
(-0.388171 0.905897 -0.0104849)
(-0.385063 0.905897 -0.0104849)
(-0.381955 0.905897 -0.0104849)
(-0.378847 0.905897 -0.0104849)
(-0.375739 0.905897 -0.0104849)
(-0.372631 0.905897 -0.0104849)
(-0.369523 0.905897 -0.0104849)
(-0.366415 0.905897 -0.0104849)
(-0.363307 0.905897 -0.0104849)
(-0.360199 0.905897 -0.0104849)
(-0.357091 0.905897 -0.0104849)
(-0.353983 0.905897 -0.0104849)
(-0.350875 0.905897 -0.0104849)
(-0.347767 0.905897 -0.0104849)
(-0.344659 0.905897 -0.0104849)
(-0.341551 0.905897 -0.0104849)
(-0.338443 0.905897 -0.0104849)
(-0.335335 0.905897 -0.0104849)
(-0.332227 0.905897 -0.0104849)
(-0.329119 0.905897 -0.0104849)
(-0.326011 0.905897 -0.0104849)
(-0.322903 0.905897 -0.0104849)
(-0.319795 0.905897 -0.0104849)
(-0.316687 0.905897 -0.0104849)
(-0.313579 0.905897 -0.0104849)
(-0.310471 0.905897 -0.0104849)
(-0.307363 0.905897 -0.0104849)
(-0.304255 0.905897 -0.0104849)
(-0.301147 0.905897 -0.0104849)
(-0.298039 0.905897 -0.0104849)
(-0.294931 0.905897 -0.0104849)
(-0.291823 0.905897 -0.0104849)
(-0.288715 0.905897 -0.0104849)
(-0.285607 0.905897 -0.0104849)
(-0.282499 0.905897 -0.0104849)
(-0.279391 0.905897 -0.0104849)
(-0.276283 0.905897 -0.0104849)
(-0.273175 0.905897 -0.0104849)
(-0.270067 0.905897 -0.0104849)
(-0.266959 0.905897 -0.0104849)
(-0.263851 0.905897 -0.0104849)
(-0.260743 0.905897 -0.0104849)
(-0.257635 0.905897 -0.0104849)
(-0.254527 0.905897 -0.0104849)
(-0.251527 0.905897 -0.00749029)
(-0.251598 0.905897 -0.0044946)
(-0.251633 0.905897 -0.00149827)
(-0.251633 0.905897 0.00149827)
(-0.251598 0.905897 0.0044946)
(-0.251527 0.905897 0.00749029)
(-0.254527 0.905897 0.0104849)
(-0.257635 0.905897 0.0104849)
(-0.260743 0.905897 0.0104849)
(-0.263851 0.905897 0.0104849)
(-0.266959 0.905897 0.0104849)
(-0.270067 0.905897 0.0104849)
(-0.273175 0.905897 0.0104849)
(-0.276283 0.905897 0.0104849)
(-0.279391 0.905897 0.0104849)
(-0.282499 0.905897 0.0104849)
(-0.285607 0.905897 0.0104849)
(-0.288715 0.905897 0.0104849)
(-0.291823 0.905897 0.0104849)
(-0.294931 0.905897 0.0104849)
(-0.298039 0.905897 0.0104849)
(-0.301147 0.905897 0.0104849)
(-0.304255 0.905897 0.0104849)
(-0.307363 0.905897 0.0104849)
(-0.310471 0.905897 0.0104849)
(-0.313579 0.905897 0.0104849)
(-0.316687 0.905897 0.0104849)
(-0.319795 0.905897 0.0104849)
(-0.322903 0.905897 0.0104849)
(-0.326011 0.905897 0.0104849)
(-0.329119 0.905897 0.0104849)
(-0.332227 0.905897 0.0104849)
(-0.335335 0.905897 0.0104849)
(-0.338443 0.905897 0.0104849)
(-0.341551 0.905897 0.0104849)
(-0.344659 0.905897 0.0104849)
(-0.347767 0.905897 0.0104849)
(-0.350875 0.905897 0.0104849)
(-0.353983 0.905897 0.0104849)
(-0.357091 0.905897 0.0104849)
(-0.360199 0.905897 0.0104849)
(-0.363307 0.905897 0.0104849)
(-0.366415 0.905897 0.0104849)
(-0.369523 0.905897 0.0104849)
(-0.372631 0.905897 0.0104849)
(-0.375739 0.905897 0.0104849)
(-0.378847 0.905897 0.0104849)
(-0.381955 0.905897 0.0104849)
(-0.385063 0.905897 0.0104849)
(-0.388171 0.905897 0.0104849)
(-0.391279 0.905897 0.0104849)
(-0.394387 0.905897 0.0104849)
(-0.397495 0.905897 0.0104849)
(-0.400603 0.905897 0.0104849)
(-0.403711 0.905897 0.0104849)
(-0.406819 0.905897 0.0104849)
(-0.409927 0.905897 0.0104849)
(-0.413035 0.905897 0.0104849)
(-0.416143 0.905897 0.0104849)
(-0.419251 0.905897 0.0104849)
(-0.422359 0.905897 0.0104849)
(-0.425467 0.905897 0.0104849)
(-0.428575 0.905897 0.0104849)
(-0.431683 0.905897 0.0104849)
(-0.434791 0.905897 0.0104849)
(-0.437899 0.905897 0.0104849)
(-0.441007 0.905897 0.0104849)
(-0.444115 0.905897 0.0104849)
(-0.447223 0.905897 0.0104849)
(-0.450331 0.905897 0.0104849)
(-0.453439 0.905897 0.0104849)
(-0.456547 0.905897 0.0104849)
(-0.459655 0.905897 0.0104849)
(-0.462763 0.905897 0.0104849)
(-0.465871 0.905897 0.0104849)
(-0.468979 0.905897 0.0104849)
(-0.472087 0.905897 0.0104849)
(-0.475195 0.905897 0.0104849)
(-0.478303 0.905897 0.0104849)
(-0.481411 0.905897 0.0104849)
(-0.484519 0.905897 0.0104849)
(-0.487627 0.905897 0.0104849)
(-0.490735 0.905897 0.0104849)
(-0.493843 0.905897 0.0104849)
(-0.496951 0.905897 0.0104849)
(-0.500059 0.905897 0.0104849)
(-0.50322 0.905897 0.00748949)
(-0.503256 0.905897 0.0044938)
(-0.503274 0.905897 0.00149795)
(-0.503274 0.905897 -0.00149795)
(-0.503256 0.905897 -0.0044938)
(-0.503167 0.909042 -0.0104849)
(-0.503167 0.912188 -0.0104849)
(-0.503167 0.915333 -0.0104849)
(-0.503167 0.918479 -0.0104849)
(-0.503167 0.921624 -0.0104849)
(-0.503167 0.92477 -0.0104849)
(-0.503167 0.927915 -0.0104849)
(-0.503167 0.93106 -0.0104849)
(-0.503167 0.934206 -0.0104849)
(-0.503167 0.937351 -0.0104849)
(-0.503167 0.940497 -0.0104849)
(-0.503167 0.943642 -0.0104849)
(-0.503167 0.946788 -0.0104849)
(-0.503167 0.949933 -0.0104849)
(-0.503167 0.953079 -0.0104849)
(-0.503167 0.956224 -0.0104849)
(-0.503167 0.95937 -0.0104849)
(-0.503167 0.962515 -0.0104849)
(-0.503167 0.965661 -0.0104849)
(-0.503167 0.968806 -0.0104849)
(-0.503167 0.971952 -0.0104849)
(-0.503167 0.975097 -0.0104849)
(-0.503167 0.978243 -0.0104849)
(-0.503167 0.981388 -0.0104849)
(-0.503167 0.984534 -0.0104849)
(-0.503167 0.987679 -0.0104849)
(-0.503167 0.990825 -0.0104849)
(-0.503167 0.99397 -0.0104849)
(-0.503167 0.997115 -0.0104849)
(-0.503167 1.00026 -0.0104849)
(-0.503167 1.00341 -0.0104849)
(-0.503167 1.00655 -0.0104849)
(-0.503167 1.0097 -0.0104849)
(-0.503167 1.01284 -0.0104849)
(-0.503167 1.01599 -0.0104849)
(-0.503167 1.01913 -0.0104849)
(-0.503167 1.02228 -0.0104849)
(-0.503167 1.02542 -0.0104849)
(-0.503167 1.02857 -0.0104849)
(-0.503167 1.03172 -0.0104849)
(-0.503167 1.03486 -0.0104849)
(-0.503167 1.03801 -0.0104849)
(-0.503167 1.04115 -0.0104849)
(-0.503167 1.0443 -0.0104849)
(-0.503167 1.04744 -0.0104849)
(-0.503167 1.05059 -0.0104849)
(-0.503167 1.05373 -0.0104849)
(-0.503167 1.05688 -0.0104849)
(-0.503167 1.06002 -0.0104849)
(-0.503167 1.06317 -0.0104849)
(-0.503167 1.06632 -0.0104849)
(-0.503167 1.06946 -0.0104849)
(-0.503167 1.07261 -0.0104849)
(-0.503167 1.07575 -0.0104849)
(-0.503167 1.0789 -0.0104849)
(-0.503167 1.08204 -0.0104849)
(-0.503167 1.08519 -0.0104849)
(-0.503167 1.08833 -0.0104849)
(-0.503167 1.09148 -0.0104849)
(-0.503167 1.09462 -0.0104849)
(-0.503167 1.09777 -0.0104849)
(-0.503167 1.10092 -0.0104849)
(-0.503167 1.10406 -0.0104849)
(-0.500059 1.10721 -0.0104849)
(-0.496951 1.10721 -0.0104849)
(-0.493843 1.10721 -0.0104849)
(-0.490735 1.10721 -0.0104849)
(-0.487627 1.10721 -0.0104849)
(-0.484519 1.10721 -0.0104849)
(-0.481411 1.10721 -0.0104849)
(-0.478303 1.10721 -0.0104849)
(-0.475195 1.10721 -0.0104849)
(-0.472087 1.10721 -0.0104849)
(-0.468979 1.10721 -0.0104849)
(-0.465871 1.10721 -0.0104849)
(-0.462763 1.10721 -0.0104849)
(-0.459655 1.10721 -0.0104849)
(-0.456547 1.10721 -0.0104849)
(-0.453439 1.10721 -0.0104849)
(-0.450331 1.10721 -0.0104849)
(-0.447223 1.10721 -0.0104849)
(-0.444115 1.10721 -0.0104849)
(-0.441007 1.10721 -0.0104849)
(-0.437899 1.10721 -0.0104849)
(-0.434791 1.10721 -0.0104849)
(-0.431683 1.10721 -0.0104849)
(-0.428575 1.10721 -0.0104849)
(-0.425467 1.10721 -0.0104849)
(-0.422359 1.10721 -0.0104849)
(-0.419251 1.10721 -0.0104849)
(-0.416143 1.10721 -0.0104849)
(-0.413035 1.10721 -0.0104849)
(-0.409927 1.10721 -0.0104849)
(-0.406819 1.10721 -0.0104849)
(-0.403711 1.10721 -0.0104849)
(-0.400603 1.10721 -0.0104849)
(-0.397495 1.10721 -0.0104849)
(-0.394387 1.10721 -0.0104849)
(-0.391279 1.10721 -0.0104849)
(-0.388171 1.10721 -0.0104849)
(-0.385063 1.10721 -0.0104849)
(-0.381955 1.10721 -0.0104849)
(-0.378847 1.10721 -0.0104849)
(-0.375739 1.10721 -0.0104849)
(-0.372631 1.10721 -0.0104849)
(-0.369523 1.10721 -0.0104849)
(-0.366415 1.10721 -0.0104849)
(-0.363307 1.10721 -0.0104849)
(-0.360199 1.10721 -0.0104849)
(-0.357091 1.10721 -0.0104849)
(-0.353983 1.10721 -0.0104849)
(-0.350875 1.10721 -0.0104849)
(-0.347767 1.10721 -0.0104849)
(-0.344659 1.10721 -0.0104849)
(-0.341551 1.10721 -0.0104849)
(-0.338443 1.10721 -0.0104849)
(-0.335335 1.10721 -0.0104849)
(-0.332227 1.10721 -0.0104849)
(-0.329119 1.10721 -0.0104849)
(-0.326011 1.10721 -0.0104849)
(-0.322903 1.10721 -0.0104849)
(-0.319795 1.10721 -0.0104849)
(-0.316687 1.10721 -0.0104849)
(-0.313579 1.10721 -0.0104849)
(-0.310471 1.10721 -0.0104849)
(-0.307363 1.10721 -0.0104849)
(-0.304255 1.10721 -0.0104849)
(-0.301147 1.10721 -0.0104849)
(-0.298039 1.10721 -0.0104849)
(-0.294931 1.10721 -0.0104849)
(-0.291823 1.10721 -0.0104849)
(-0.288715 1.10721 -0.0104849)
(-0.285607 1.10721 -0.0104849)
(-0.282499 1.10721 -0.0104849)
(-0.279391 1.10721 -0.0104849)
(-0.276283 1.10721 -0.0104849)
(-0.273175 1.10721 -0.0104849)
(-0.270067 1.10721 -0.0104849)
(-0.266959 1.10721 -0.0104849)
(-0.263851 1.10721 -0.0104849)
(-0.260743 1.10721 -0.0104849)
(-0.257635 1.10721 -0.0104849)
(-0.254527 1.10721 -0.0104849)
(-0.251419 1.1041 -0.0104849)
(-0.251419 1.10099 -0.0104849)
(-0.251419 1.09788 -0.0104849)
(-0.251419 1.09477 -0.0104849)
(-0.251419 1.09166 -0.0104849)
(-0.251419 1.08855 -0.0104849)
(-0.251419 1.08544 -0.0104849)
(-0.251419 1.08233 -0.0104849)
(-0.251419 1.07922 -0.0104849)
(-0.251419 1.07611 -0.0104849)
(-0.251419 1.073 -0.0104849)
(-0.251419 1.0699 -0.0104849)
(-0.251419 1.06679 -0.0104849)
(-0.251419 1.06368 -0.0104849)
(-0.251419 1.06057 -0.0104849)
(-0.251419 1.05746 -0.0104849)
(-0.251419 1.05435 -0.0104849)
(-0.251419 1.05124 -0.0104849)
(-0.251419 1.04813 -0.0104849)
(-0.251419 1.04502 -0.0104849)
(-0.251419 1.04191 -0.0104849)
(-0.251419 1.0388 -0.0104849)
(-0.251419 1.03569 -0.0104849)
(-0.251419 1.03258 -0.0104849)
(-0.251419 1.02947 -0.0104849)
(-0.251419 1.02637 -0.0104849)
(-0.251419 1.02325 -0.0104849)
(-0.251419 1.02015 -0.0104849)
(-0.254511 1.01704 -0.0104849)
(-0.257603 1.01704 -0.0104849)
(-0.260695 1.01704 -0.0104849)
(-0.263787 1.01704 -0.0104849)
(-0.266879 1.01704 -0.0104849)
(-0.269971 1.01704 -0.0104849)
(-0.273062 1.01704 -0.0104849)
(-0.276154 1.01704 -0.0104849)
(-0.279246 1.01704 -0.0104849)
(-0.282338 1.01704 -0.0104849)
(-0.28543 1.01704 -0.0104849)
(-0.288522 1.01704 -0.0104849)
(-0.291614 1.01704 -0.0104849)
(-0.294706 1.01704 -0.0104849)
(-0.297798 1.01704 -0.0104849)
(-0.300889 1.01704 -0.0104849)
(-0.303981 1.01704 -0.0104849)
(-0.307073 1.01704 -0.0104849)
(-0.310165 1.01704 -0.0104849)
(-0.313257 1.01704 -0.0104849)
(-0.316349 1.01704 -0.0104849)
(-0.319441 1.01704 -0.0104849)
(-0.322533 1.01704 -0.0104849)
(-0.325624 1.01704 -0.0104849)
(-0.328716 1.01704 -0.0104849)
(-0.331808 1.01704 -0.0104849)
(-0.3349 1.01704 -0.0104849)
(-0.337992 1.01704 -0.0104849)
(-0.341084 1.01704 -0.0104849)
(-0.344175 1.01704 -0.0104849)
(-0.347267 1.01704 -0.0104849)
(-0.350359 1.01704 -0.0104849)
(-0.353451 1.01704 -0.0104849)
(-0.356543 1.01704 -0.0104849)
(-0.359635 1.01704 -0.0104849)
(-0.362727 1.01704 -0.0104849)
(-0.365819 1.01704 -0.0104849)
(-0.36891 1.01704 -0.0104849)
(-0.372002 1.01704 -0.0104849)
(-0.375094 1.01704 -0.0104849)
(-0.378186 1.01704 -0.0104849)
(-0.381278 1.01704 -0.0104849)
(-0.38437 1.01704 -0.0104849)
(-0.387462 1.01704 -0.0104849)
(-0.390554 1.01704 -0.0104849)
(-0.393645 1.01704 -0.0104849)
(-0.396737 1.01704 -0.0104849)
(-0.399829 1.01704 -0.0104849)
(-0.402921 1.01704 -0.0104849)
(-0.406013 1.01704 -0.0104849)
(-0.409105 1.01704 -0.0104849)
(-0.412197 1.01704 -0.0104849)
(-0.415289 1.01704 -0.0104849)
(-0.41838 1.01704 -0.0104849)
(-0.421472 1.01704 -0.0104849)
(-0.424564 1.01704 -0.0104849)
(-0.427656 1.01404 -0.0104849)
(-0.427656 1.01104 -0.0104849)
(-0.427656 1.00805 -0.0104849)
(-0.427656 1.00505 -0.0104849)
(-0.427656 1.00206 -0.0104849)
(-0.427656 0.999063 -0.0104849)
(-0.424564 0.996067 -0.0104849)
(-0.421472 0.996067 -0.0104849)
(-0.41838 0.996067 -0.0104849)
(-0.415289 0.996067 -0.0104849)
(-0.412197 0.996067 -0.0104849)
(-0.409105 0.996067 -0.0104849)
(-0.406013 0.996067 -0.0104849)
(-0.402921 0.996067 -0.0104849)
(-0.399829 0.996067 -0.0104849)
(-0.396737 0.996067 -0.0104849)
(-0.393645 0.996067 -0.0104849)
(-0.390554 0.996067 -0.0104849)
(-0.387462 0.996067 -0.0104849)
(-0.38437 0.996067 -0.0104849)
(-0.381278 0.996067 -0.0104849)
(-0.378186 0.996067 -0.0104849)
(-0.375094 0.996067 -0.0104849)
(-0.372002 0.996067 -0.0104849)
(-0.36891 0.996067 -0.0104849)
(-0.365819 0.996067 -0.0104849)
(-0.362727 0.996067 -0.0104849)
(-0.359635 0.996067 -0.0104849)
(-0.356543 0.996067 -0.0104849)
(-0.353451 0.996067 -0.0104849)
(-0.350359 0.996067 -0.0104849)
(-0.347267 0.996067 -0.0104849)
(-0.344175 0.996067 -0.0104849)
(-0.341084 0.996067 -0.0104849)
(-0.337992 0.996067 -0.0104849)
(-0.3349 0.996067 -0.0104849)
(-0.331808 0.996067 -0.0104849)
(-0.328716 0.996067 -0.0104849)
(-0.325624 0.996067 -0.0104849)
(-0.322533 0.996067 -0.0104849)
(-0.319441 0.996067 -0.0104849)
(-0.316349 0.996067 -0.0104849)
(-0.313257 0.996067 -0.0104849)
(-0.310165 0.996067 -0.0104849)
(-0.307073 0.996067 -0.0104849)
(-0.303981 0.996067 -0.0104849)
(-0.300889 0.996067 -0.0104849)
(-0.297798 0.996067 -0.0104849)
(-0.294706 0.996067 -0.0104849)
(-0.291614 0.996067 -0.0104849)
(-0.288522 0.996067 -0.0104849)
(-0.28543 0.996067 -0.0104849)
(-0.282338 0.996067 -0.0104849)
(-0.279246 0.996067 -0.0104849)
(-0.276154 0.996067 -0.0104849)
(-0.273062 0.996067 -0.0104849)
(-0.269971 0.996067 -0.0104849)
(-0.266879 0.996067 -0.0104849)
(-0.263787 0.996067 -0.0104849)
(-0.260695 0.996067 -0.0104849)
(-0.257603 0.996067 -0.0104849)
(-0.251419 0.992958 -0.0104849)
(-0.254511 0.996067 -0.0104849)
(-0.251419 0.989848 -0.0104849)
(-0.251419 0.986739 -0.0104849)
(-0.251419 0.98363 -0.0104849)
(-0.251419 0.98052 -0.0104849)
(-0.251419 0.977411 -0.0104849)
(-0.251419 0.974302 -0.0104849)
(-0.251419 0.971192 -0.0104849)
(-0.251419 0.968083 -0.0104849)
(-0.251419 0.964974 -0.0104849)
(-0.251419 0.961864 -0.0104849)
(-0.251419 0.958755 -0.0104849)
(-0.251419 0.955646 -0.0104849)
(-0.251419 0.952537 -0.0104849)
(-0.251419 0.949427 -0.0104849)
(-0.251419 0.946318 -0.0104849)
(-0.251419 0.943209 -0.0104849)
(-0.251419 0.940099 -0.0104849)
(-0.251419 0.93699 -0.0104849)
(-0.251419 0.933881 -0.0104849)
(-0.251419 0.930771 -0.0104849)
(-0.251419 0.927662 -0.0104849)
(-0.251419 0.924553 -0.0104849)
(-0.251419 0.921443 -0.0104849)
(-0.251419 0.918334 -0.0104849)
(-0.251419 0.915225 -0.0104849)
(-0.251419 0.912115 -0.0104849)
(-0.251419 0.909006 -0.0104849)
(-0.251527 0.996067 -0.00749029)
(-0.251598 0.996067 -0.0044946)
(-0.251633 0.996067 -0.00149827)
(-0.251633 0.996067 0.00149827)
(-0.251598 0.996067 0.0044946)
(-0.251527 0.996067 0.00749029)
(-0.251419 0.992958 0.0104849)
(-0.251419 0.989848 0.0104849)
(-0.251419 0.986739 0.0104849)
(-0.251419 0.98363 0.0104849)
(-0.251419 0.98052 0.0104849)
(-0.251419 0.977411 0.0104849)
(-0.251419 0.974302 0.0104849)
(-0.251419 0.971192 0.0104849)
(-0.251419 0.968083 0.0104849)
(-0.251419 0.964974 0.0104849)
(-0.251419 0.961864 0.0104849)
(-0.251419 0.958755 0.0104849)
(-0.251419 0.955646 0.0104849)
(-0.251419 0.952537 0.0104849)
(-0.251419 0.949427 0.0104849)
(-0.251419 0.946318 0.0104849)
(-0.251419 0.943209 0.0104849)
(-0.251419 0.940099 0.0104849)
(-0.251419 0.93699 0.0104849)
(-0.251419 0.933881 0.0104849)
(-0.251419 0.930771 0.0104849)
(-0.251419 0.927662 0.0104849)
(-0.251419 0.924553 0.0104849)
(-0.251419 0.921443 0.0104849)
(-0.251419 0.918334 0.0104849)
(-0.251419 0.915225 0.0104849)
(-0.251419 0.912115 0.0104849)
(-0.251419 0.909006 0.0104849)
(-0.503167 1.10406 0.0104849)
(-0.500059 1.10721 0.0104849)
(-0.503167 1.10092 0.0104849)
(-0.503167 1.09777 0.0104849)
(-0.503167 1.09462 0.0104849)
(-0.503167 1.09148 0.0104849)
(-0.503167 1.08833 0.0104849)
(-0.503167 1.08519 0.0104849)
(-0.503167 1.08204 0.0104849)
(-0.503167 1.0789 0.0104849)
(-0.503167 1.07575 0.0104849)
(-0.503167 1.07261 0.0104849)
(-0.503167 1.06946 0.0104849)
(-0.503167 1.06632 0.0104849)
(-0.503167 1.06317 0.0104849)
(-0.503167 1.06002 0.0104849)
(-0.503167 1.05688 0.0104849)
(-0.503167 1.05373 0.0104849)
(-0.503167 1.05059 0.0104849)
(-0.503167 1.04744 0.0104849)
(-0.503167 1.0443 0.0104849)
(-0.503167 1.04115 0.0104849)
(-0.503167 1.03801 0.0104849)
(-0.503167 1.03486 0.0104849)
(-0.503167 1.03172 0.0104849)
(-0.503167 1.02857 0.0104849)
(-0.503167 1.02542 0.0104849)
(-0.503167 1.02228 0.0104849)
(-0.503167 1.01913 0.0104849)
(-0.503167 1.01599 0.0104849)
(-0.503167 1.01284 0.0104849)
(-0.503167 1.0097 0.0104849)
(-0.503167 1.00655 0.0104849)
(-0.503167 1.00341 0.0104849)
(-0.503167 1.00026 0.0104849)
(-0.503167 0.997115 0.0104849)
(-0.503167 0.99397 0.0104849)
(-0.503167 0.990825 0.0104849)
(-0.503167 0.987679 0.0104849)
(-0.503167 0.984534 0.0104849)
(-0.503167 0.981388 0.0104849)
(-0.503167 0.978243 0.0104849)
(-0.503167 0.975097 0.0104849)
(-0.503167 0.971952 0.0104849)
(-0.503167 0.968806 0.0104849)
(-0.503167 0.965661 0.0104849)
(-0.503167 0.962515 0.0104849)
(-0.503167 0.95937 0.0104849)
(-0.503167 0.956224 0.0104849)
(-0.503167 0.953079 0.0104849)
(-0.503167 0.949933 0.0104849)
(-0.503167 0.946788 0.0104849)
(-0.503167 0.943642 0.0104849)
(-0.503167 0.940497 0.0104849)
(-0.503167 0.937351 0.0104849)
(-0.503167 0.934206 0.0104849)
(-0.503167 0.93106 0.0104849)
(-0.503167 0.927915 0.0104849)
(-0.503167 0.92477 0.0104849)
(-0.503167 0.921624 0.0104849)
(-0.503167 0.918479 0.0104849)
(-0.503167 0.915333 0.0104849)
(-0.503167 0.912188 0.0104849)
(-0.503167 0.909042 0.0104849)
(-0.254511 0.996067 0.0104849)
(-0.257603 0.996067 0.0104849)
(-0.260695 0.996067 0.0104849)
(-0.263787 0.996067 0.0104849)
(-0.266879 0.996067 0.0104849)
(-0.269971 0.996067 0.0104849)
(-0.273062 0.996067 0.0104849)
(-0.276154 0.996067 0.0104849)
(-0.279246 0.996067 0.0104849)
(-0.282338 0.996067 0.0104849)
(-0.28543 0.996067 0.0104849)
(-0.288522 0.996067 0.0104849)
(-0.291614 0.996067 0.0104849)
(-0.294706 0.996067 0.0104849)
(-0.297798 0.996067 0.0104849)
(-0.300889 0.996067 0.0104849)
(-0.303981 0.996067 0.0104849)
(-0.307073 0.996067 0.0104849)
(-0.310165 0.996067 0.0104849)
(-0.313257 0.996067 0.0104849)
(-0.316349 0.996067 0.0104849)
(-0.319441 0.996067 0.0104849)
(-0.322533 0.996067 0.0104849)
(-0.325624 0.996067 0.0104849)
(-0.328716 0.996067 0.0104849)
(-0.331808 0.996067 0.0104849)
(-0.3349 0.996067 0.0104849)
(-0.337992 0.996067 0.0104849)
(-0.341084 0.996067 0.0104849)
(-0.344175 0.996067 0.0104849)
(-0.347267 0.996067 0.0104849)
(-0.350359 0.996067 0.0104849)
(-0.353451 0.996067 0.0104849)
(-0.356543 0.996067 0.0104849)
(-0.359635 0.996067 0.0104849)
(-0.362727 0.996067 0.0104849)
(-0.365819 0.996067 0.0104849)
(-0.36891 0.996067 0.0104849)
(-0.372002 0.996067 0.0104849)
(-0.375094 0.996067 0.0104849)
(-0.378186 0.996067 0.0104849)
(-0.381278 0.996067 0.0104849)
(-0.38437 0.996067 0.0104849)
(-0.387462 0.996067 0.0104849)
(-0.390554 0.996067 0.0104849)
(-0.393645 0.996067 0.0104849)
(-0.396737 0.996067 0.0104849)
(-0.399829 0.996067 0.0104849)
(-0.402921 0.996067 0.0104849)
(-0.406013 0.996067 0.0104849)
(-0.409105 0.996067 0.0104849)
(-0.412197 0.996067 0.0104849)
(-0.415289 0.996067 0.0104849)
(-0.41838 0.996067 0.0104849)
(-0.421472 0.996067 0.0104849)
(-0.424564 0.996067 0.0104849)
(-0.427656 0.999063 0.0104849)
(-0.427656 1.00206 0.0104849)
(-0.427656 1.00505 0.0104849)
(-0.427656 1.00805 0.0104849)
(-0.427656 1.01104 0.0104849)
(-0.427656 1.01404 0.0104849)
(-0.424564 1.01704 0.0104849)
(-0.421472 1.01704 0.0104849)
(-0.41838 1.01704 0.0104849)
(-0.415289 1.01704 0.0104849)
(-0.412197 1.01704 0.0104849)
(-0.409105 1.01704 0.0104849)
(-0.406013 1.01704 0.0104849)
(-0.402921 1.01704 0.0104849)
(-0.399829 1.01704 0.0104849)
(-0.396737 1.01704 0.0104849)
(-0.393645 1.01704 0.0104849)
(-0.390554 1.01704 0.0104849)
(-0.387462 1.01704 0.0104849)
(-0.38437 1.01704 0.0104849)
(-0.381278 1.01704 0.0104849)
(-0.378186 1.01704 0.0104849)
(-0.375094 1.01704 0.0104849)
(-0.372002 1.01704 0.0104849)
(-0.36891 1.01704 0.0104849)
(-0.365819 1.01704 0.0104849)
(-0.362727 1.01704 0.0104849)
(-0.359635 1.01704 0.0104849)
(-0.356543 1.01704 0.0104849)
(-0.353451 1.01704 0.0104849)
(-0.350359 1.01704 0.0104849)
(-0.347267 1.01704 0.0104849)
(-0.344175 1.01704 0.0104849)
(-0.341084 1.01704 0.0104849)
(-0.337992 1.01704 0.0104849)
(-0.3349 1.01704 0.0104849)
(-0.331808 1.01704 0.0104849)
(-0.328716 1.01704 0.0104849)
(-0.325624 1.01704 0.0104849)
(-0.322533 1.01704 0.0104849)
(-0.319441 1.01704 0.0104849)
(-0.316349 1.01704 0.0104849)
(-0.313257 1.01704 0.0104849)
(-0.310165 1.01704 0.0104849)
(-0.307073 1.01704 0.0104849)
(-0.303981 1.01704 0.0104849)
(-0.300889 1.01704 0.0104849)
(-0.297798 1.01704 0.0104849)
(-0.294706 1.01704 0.0104849)
(-0.291614 1.01704 0.0104849)
(-0.288522 1.01704 0.0104849)
(-0.28543 1.01704 0.0104849)
(-0.282338 1.01704 0.0104849)
(-0.279246 1.01704 0.0104849)
(-0.276154 1.01704 0.0104849)
(-0.273062 1.01704 0.0104849)
(-0.269971 1.01704 0.0104849)
(-0.266879 1.01704 0.0104849)
(-0.263787 1.01704 0.0104849)
(-0.260695 1.01704 0.0104849)
(-0.257603 1.01704 0.0104849)
(-0.251419 1.02015 0.0104849)
(-0.254511 1.01704 0.0104849)
(-0.251419 1.02325 0.0104849)
(-0.251419 1.02637 0.0104849)
(-0.251419 1.02947 0.0104849)
(-0.251419 1.03258 0.0104849)
(-0.251419 1.03569 0.0104849)
(-0.251419 1.0388 0.0104849)
(-0.251419 1.04191 0.0104849)
(-0.251419 1.04502 0.0104849)
(-0.251419 1.04813 0.0104849)
(-0.251419 1.05124 0.0104849)
(-0.251419 1.05435 0.0104849)
(-0.251419 1.05746 0.0104849)
(-0.251419 1.06057 0.0104849)
(-0.251419 1.06368 0.0104849)
(-0.251419 1.06679 0.0104849)
(-0.251419 1.0699 0.0104849)
(-0.251419 1.073 0.0104849)
(-0.251419 1.07611 0.0104849)
(-0.251419 1.07922 0.0104849)
(-0.251419 1.08233 0.0104849)
(-0.251419 1.08544 0.0104849)
(-0.251419 1.08855 0.0104849)
(-0.251419 1.09166 0.0104849)
(-0.251419 1.09477 0.0104849)
(-0.251419 1.09788 0.0104849)
(-0.251419 1.10099 0.0104849)
(-0.251419 1.1041 0.0104849)
(-0.254527 1.10721 0.0104849)
(-0.257635 1.10721 0.0104849)
(-0.260743 1.10721 0.0104849)
(-0.263851 1.10721 0.0104849)
(-0.266959 1.10721 0.0104849)
(-0.270067 1.10721 0.0104849)
(-0.273175 1.10721 0.0104849)
(-0.276283 1.10721 0.0104849)
(-0.279391 1.10721 0.0104849)
(-0.282499 1.10721 0.0104849)
(-0.285607 1.10721 0.0104849)
(-0.288715 1.10721 0.0104849)
(-0.291823 1.10721 0.0104849)
(-0.294931 1.10721 0.0104849)
(-0.298039 1.10721 0.0104849)
(-0.301147 1.10721 0.0104849)
(-0.304255 1.10721 0.0104849)
(-0.307363 1.10721 0.0104849)
(-0.310471 1.10721 0.0104849)
(-0.313579 1.10721 0.0104849)
(-0.316687 1.10721 0.0104849)
(-0.319795 1.10721 0.0104849)
(-0.322903 1.10721 0.0104849)
(-0.326011 1.10721 0.0104849)
(-0.329119 1.10721 0.0104849)
(-0.332227 1.10721 0.0104849)
(-0.335335 1.10721 0.0104849)
(-0.338443 1.10721 0.0104849)
(-0.341551 1.10721 0.0104849)
(-0.344659 1.10721 0.0104849)
(-0.347767 1.10721 0.0104849)
(-0.350875 1.10721 0.0104849)
(-0.353983 1.10721 0.0104849)
(-0.357091 1.10721 0.0104849)
(-0.360199 1.10721 0.0104849)
(-0.363307 1.10721 0.0104849)
(-0.366415 1.10721 0.0104849)
(-0.369523 1.10721 0.0104849)
(-0.372631 1.10721 0.0104849)
(-0.375739 1.10721 0.0104849)
(-0.378847 1.10721 0.0104849)
(-0.381955 1.10721 0.0104849)
(-0.385063 1.10721 0.0104849)
(-0.388171 1.10721 0.0104849)
(-0.391279 1.10721 0.0104849)
(-0.394387 1.10721 0.0104849)
(-0.397495 1.10721 0.0104849)
(-0.400603 1.10721 0.0104849)
(-0.403711 1.10721 0.0104849)
(-0.406819 1.10721 0.0104849)
(-0.409927 1.10721 0.0104849)
(-0.413035 1.10721 0.0104849)
(-0.416143 1.10721 0.0104849)
(-0.419251 1.10721 0.0104849)
(-0.422359 1.10721 0.0104849)
(-0.425467 1.10721 0.0104849)
(-0.428575 1.10721 0.0104849)
(-0.431683 1.10721 0.0104849)
(-0.434791 1.10721 0.0104849)
(-0.437899 1.10721 0.0104849)
(-0.441007 1.10721 0.0104849)
(-0.444115 1.10721 0.0104849)
(-0.447223 1.10721 0.0104849)
(-0.450331 1.10721 0.0104849)
(-0.453439 1.10721 0.0104849)
(-0.456547 1.10721 0.0104849)
(-0.459655 1.10721 0.0104849)
(-0.462763 1.10721 0.0104849)
(-0.465871 1.10721 0.0104849)
(-0.468979 1.10721 0.0104849)
(-0.472087 1.10721 0.0104849)
(-0.475195 1.10721 0.0104849)
(-0.478303 1.10721 0.0104849)
(-0.481411 1.10721 0.0104849)
(-0.484519 1.10721 0.0104849)
(-0.487627 1.10721 0.0104849)
(-0.490735 1.10721 0.0104849)
(-0.493843 1.10721 0.0104849)
(-0.496951 1.10721 0.0104849)
(-0.50322 1.10721 -0.00748949)
(-0.50322 1.10721 0.00748949)
(-0.503256 1.10721 0.0044938)
(-0.503274 1.10721 0.00149795)
(-0.503274 1.10721 -0.00149795)
(-0.503256 1.10721 -0.0044938)
(-0.251527 1.10721 -0.00749029)
(-0.251527 1.10721 0.00749029)
(-0.251598 1.10721 0.0044946)
(-0.251633 1.10721 0.00149827)
(-0.251633 1.10721 -0.00149827)
(-0.251598 1.10721 -0.0044946)
(-0.251527 1.01704 -0.00749029)
(-0.251527 1.01704 0.00749029)
(-0.251598 1.01704 0.0044946)
(-0.251633 1.01704 0.00149827)
(-0.251633 1.01704 -0.00149827)
(-0.251598 1.01704 -0.0044946)
(0.254527 0.905897 -0.0104849)
(0.251527 0.905897 -0.00749029)
(0.257635 0.905897 -0.0104849)
(0.260743 0.905897 -0.0104849)