/*--------------------------------*- C++ -*----------------------------------*\
  =========                 |
  \\      /  F ield         | OpenFOAM: The Open Source CFD Toolbox
   \\    /   O peration     | Website:  https://openfoam.org
    \\  /    A nd           | Version:  10
     \\/     M anipulation  |
\*---------------------------------------------------------------------------*/
FoamFile
{
    format      ascii;
    class       featureEdgeMesh;
    location    "constant/triSurface";
    object      impeller_and_disk.eMesh;
}
// * * * * * * * * * * * * * * * * * * * * * * * * * * * * * * * * * * * * * //


// points:

5587
(
(-0.427656 1.01704 0.0104849)
(-0.222908 1.01704 0.365119)
(-0.204748 1.01704 0.375603)
(0.204748 1.01704 0.375603)
(0.222908 1.01704 0.365119)
(0.427656 1.01704 0.0104849)
(0.427656 1.01704 -0.0104849)
(0.222908 1.01704 -0.365119)
(0.204748 1.01704 -0.375603)
(-0.204748 1.01704 -0.375603)
(-0.222908 1.01704 -0.365119)
(-0.427656 1.01704 -0.0104849)
(-0.427656 0.996067 0.0104849)
(-0.222908 0.996067 0.365119)
(-0.427656 0.996067 -0.0104849)
(-0.222908 0.996067 -0.365119)
(-0.204748 0.996067 0.375603)
(0.204748 0.996067 0.375603)
(-0.204748 0.996067 -0.375603)
(0.204748 0.996067 -0.375603)
(0.222908 0.996067 0.365119)
(0.427656 0.996067 0.0104849)
(0.222908 0.996067 -0.365119)
(0.427656 0.996067 -0.0104849)
(0.0152031 2.48752 0.0610448)
(-0.0562663 2.56587 0.0281372)
(-0.0604679 2.54524 0.0173562)
(0.00376562 2.46689 0.0627967)
(-0.0604679 2.48752 -0.0173562)
(-0.0562663 2.46689 -0.0281372)
(0.0152031 2.54524 -0.0610448)
(0.00376562 2.56587 -0.0627967)
(0.0452649 2.48752 -0.0436886)
(0.0525007 2.46689 -0.0346595)
(0.0452649 2.54524 0.0436886)
(0.0525007 2.56587 0.0346595)
(0.0285612 2.43234 0.148257)
(0.0171238 2.41172 0.150009)
(-0.142675 2.60041 0.0493937)
(-0.138473 2.62104 0.0601747)
(-0.142675 2.43234 -0.0493937)
(-0.138473 2.41172 -0.0601747)
(0.0285612 2.60041 -0.148257)
(0.0171238 2.62104 -0.150009)
(0.114114 2.43234 -0.0988631)
(0.121349 2.41172 -0.0898339)
(0.114114 2.60041 0.0988631)
(0.121349 2.62104 0.0898339)
(-0.251419 1.01704 0.0104849)
(-0.13479 1.01704 0.212493)
(-0.11663 1.01704 0.222978)
(0.11663 1.01704 0.222978)
(0.13479 1.01704 0.212493)
(0.251419 1.01704 0.0104849)
(0.251419 1.01704 -0.0104849)
(0.13479 1.01704 -0.212493)
(0.11663 1.01704 -0.222978)
(-0.11663 1.01704 -0.222978)
(-0.13479 1.01704 -0.212493)
(-0.251419 1.01704 -0.0104849)
(-0.251419 0.996067 0.0104849)
(-0.251419 0.996067 -0.0104849)
(-0.13479 0.996067 0.212493)
(-0.11663 0.996067 0.222978)
(-0.13479 0.996067 -0.212493)
(-0.11663 0.996067 -0.222978)
(0.11663 0.996067 0.222978)
(0.13479 0.996067 0.212493)
(0.11663 0.996067 -0.222978)
(0.13479 0.996067 -0.212493)
(0.251419 0.996067 0.0104849)
(0.251419 0.996067 -0.0104849)
(-1.54084e-17 2.86867 0.0629095)
(-0.00313578 2.86867 0.0628313)
(-0.00626376 2.86867 0.0625969)
(-0.00937617 2.86867 0.0622068)
(-0.0124653 2.86867 0.0616621)
(-0.0155234 2.86867 0.0609642)
(-0.0185429 2.86867 0.0601146)
(-0.0215163 2.86867 0.0591156)
(-0.0244362 2.86867 0.0579696)
(-0.0272954 2.86867 0.0566795)
(-0.0300867 2.86867 0.0552485)
(-0.0328032 2.86867 0.0536801)
(-0.0354382 2.86867 0.0519783)
(-0.037985 2.86867 0.0501472)
(-0.0404374 2.86867 0.0481915)
(-0.0427893 2.86867 0.0461159)
(-0.0450348 2.86867 0.0439257)
(-0.0471684 2.86867 0.0416263)
(-0.0491846 2.86867 0.0392234)
(-0.0510786 2.86867 0.036723)
(-0.0528456 2.86867 0.0341313)
(-0.0544812 2.86867 0.0314547)
(-0.0559814 2.86867 0.0287)
(-0.0573424 2.86867 0.0258739)
(-0.0585608 2.86867 0.0229834)
(-0.0596336 2.86867 0.0200358)
(-0.0605582 2.86867 0.0170384)
(-0.0613322 2.86867 0.0139987)
(-0.0619538 2.86867 0.0109241)
(-0.0624213 2.86867 0.0078224)
(-0.0627336 2.86867 0.00470123)
(-0.0628899 2.86867 0.00156838)
(-0.0628899 2.86867 -0.00156838)
(-0.0627336 2.86867 -0.00470123)
(-0.0624213 2.86867 -0.0078224)
(-0.0619538 2.86867 -0.0109241)
(-0.0613322 2.86867 -0.0139987)
(-0.0605582 2.86867 -0.0170384)
(-0.0596336 2.86867 -0.0200358)
(-0.0585608 2.86867 -0.0229834)
(-0.0573424 2.86867 -0.0258739)
(-0.0559814 2.86867 -0.0287)
(-0.0544812 2.86867 -0.0314547)
(-0.0528456 2.86867 -0.0341313)
(-0.0510786 2.86867 -0.036723)
(-0.0491846 2.86867 -0.0392234)
(-0.0471684 2.86867 -0.0416263)
(-0.0450348 2.86867 -0.0439257)
(-0.0427893 2.86867 -0.0461159)
(-0.0404374 2.86867 -0.0481915)
(-0.037985 2.86867 -0.0501472)
(-0.0354382 2.86867 -0.0519783)
(-0.0328032 2.86867 -0.0536801)
(-0.0300867 2.86867 -0.0552485)
(-0.0272954 2.86867 -0.0566795)
(-0.0244362 2.86867 -0.0579696)
(-0.0215163 2.86867 -0.0591156)
(-0.0185429 2.86867 -0.0601146)
(-0.0155234 2.86867 -0.0609642)
(-0.0124653 2.86867 -0.0616621)
(-0.00937617 2.86867 -0.0622068)
(-0.00626376 2.86867 -0.0625969)
(-0.00313578 2.86867 -0.0628313)
(-2.15795e-16 2.86867 -0.0629095)
(0.00313578 2.86867 -0.0628313)
(0.00626376 2.86867 -0.0625969)
(0.00937617 2.86867 -0.0622068)
(0.0124653 2.86867 -0.0616621)
(0.0155234 2.86867 -0.0609642)
(0.0185429 2.86867 -0.0601146)
(0.0215163 2.86867 -0.0591156)
(0.0244362 2.86867 -0.0579696)
(0.0272954 2.86867 -0.0566795)
(0.0300867 2.86867 -0.0552485)
(0.0328032 2.86867 -0.0536801)
(0.0354382 2.86867 -0.0519783)
(0.037985 2.86867 -0.0501472)
(0.0404374 2.86867 -0.0481915)
(0.0427893 2.86867 -0.0461159)
(0.0450348 2.86867 -0.0439257)
(0.0471684 2.86867 -0.0416263)
(0.0491846 2.86867 -0.0392234)
(0.0510786 2.86867 -0.036723)
(0.0528456 2.86867 -0.0341313)
(0.0544812 2.86867 -0.0314547)
(0.0559814 2.86867 -0.0287)
(0.0573424 2.86867 -0.0258739)
(0.0585608 2.86867 -0.0229834)
(0.0596336 2.86867 -0.0200358)
(0.0605582 2.86867 -0.0170384)
(0.0613322 2.86867 -0.0139987)
(0.0619538 2.86867 -0.0109241)
(0.0624213 2.86867 -0.0078224)
(0.0627336 2.86867 -0.00470123)
(0.0628899 2.86867 -0.00156838)
(0.0628899 2.86867 0.00156838)
(0.0627336 2.86867 0.00470123)
(0.0624213 2.86867 0.0078224)
(0.0619538 2.86867 0.0109241)
(0.0613322 2.86867 0.0139987)
(0.0605582 2.86867 0.0170384)
(0.0596336 2.86867 0.0200358)
(0.0585608 2.86867 0.0229834)
(0.0573424 2.86867 0.0258739)
(0.0559814 2.86867 0.0287)
(0.0544812 2.86867 0.0314547)
(0.0528456 2.86867 0.0341313)
(0.0510786 2.86867 0.036723)
(0.0491846 2.86867 0.0392234)
(0.0471684 2.86867 0.0416263)
(0.0450348 2.86867 0.0439257)
(0.0427893 2.86867 0.0461159)
(0.0404374 2.86867 0.0481915)
(0.037985 2.86867 0.0501472)
(0.0354382 2.86867 0.0519783)
(0.0328032 2.86867 0.0536801)
(0.0300867 2.86867 0.0552485)
(0.0272954 2.86867 0.0566795)
(0.0244362 2.86867 0.0579696)
(0.0215163 2.86867 0.0591156)
(0.0185429 2.86867 0.0601146)
(0.0155234 2.86867 0.0609642)
(0.0124653 2.86867 0.0616621)
(0.00937617 2.86867 0.0622068)
(0.00626376 2.86867 0.0625969)
(0.00313578 2.86867 0.0628313)
(-3.69801e-17 2.63717 0.150983)
(0.00314101 2.63717 0.15095)
(0.00628066 2.63717 0.150852)
(0.00941759 2.63717 0.150689)
(0.0125504 2.63717 0.15046)
(0.0156779 2.63717 0.150167)
(0.0187985 2.63717 0.149808)
(0.021911 2.63717 0.149384)
(0.025014 2.63717 0.148896)
(0.0281062 2.63717 0.148344)
(0.0311862 2.63717 0.147727)
(0.0342527 2.63717 0.147046)
(0.0373044 2.63717 0.146302)
(0.04034 2.63717 0.145494)
(0.0433581 2.63717 0.144623)
(0.0463574 2.63717 0.14369)
(0.0493366 2.63717 0.142694)
(0.0522945 2.63717 0.141637)
(0.0552298 2.63717 0.140519)
(0.0581412 2.63717 0.139339)
(0.0610274 2.63717 0.1381)
(0.0638871 2.63717 0.1368)
(0.0667193 2.63717 0.135441)
(0.0695225 2.63717 0.134024)
(0.0722957 2.63717 0.132549)
(0.0750375 2.63717 0.131016)
(0.0777469 2.63717 0.129426)
(0.0804226 2.63717 0.127781)
(0.0830636 2.63717 0.12608)
(0.0856685 2.63717 0.124325)
(0.0882364 2.63717 0.122516)
(0.0907661 2.63717 0.120654)
(0.0932565 2.63717 0.118739)
(0.0957066 2.63717 0.116774)
(0.0981152 2.63717 0.114757)
(0.100481 2.63717 0.112691)
(0.102804 2.63717 0.110576)
(0.105082 2.63717 0.108414)
(0.107315 2.63717 0.106204)
(0.109501 2.63717 0.103949)
(0.11164 2.63717 0.101648)
(0.11373 2.63717 0.0993036)
(0.115772 2.63717 0.0969161)
(0.117763 2.63717 0.0944866)
(0.119703 2.63717 0.0920163)
(0.121591 2.63717 0.0895061)
(0.123427 2.63717 0.0869572)
(0.125209 2.63717 0.0843706)
(0.126937 2.63717 0.0817475)
(0.128611 2.63717 0.0790891)
(0.130228 2.63717 0.0763964)
(0.131789 2.63717 0.0736706)
(0.133293 2.63717 0.0709129)
(0.13474 2.63717 0.0681246)
(0.136128 2.63717 0.0653068)
(0.137457 2.63717 0.0624606)
(0.138727 2.63717 0.0595875)
(0.139936 2.63717 0.0566886)
(0.141086 2.63717 0.0537651)
(0.142173 2.63717 0.0508184)
(0.1432 2.63717 0.0478496)
(0.144164 2.63717 0.0448602)
(0.145066 2.63717 0.0418513)
(0.145906 2.63717 0.0388243)
(0.146682 2.63717 0.0357805)
(0.147394 2.63717 0.0327213)
(0.148043 2.63717 0.0296478)
(0.148628 2.63717 0.0265615)
(0.149148 2.63717 0.0234638)
(0.149604 2.63717 0.0203559)
(0.149995 2.63717 0.0172391)
(0.150322 2.63717 0.0141149)
(0.150583 2.63717 0.0109846)
(0.150779 2.63717 0.00784955)
(0.150909 2.63717 0.00471109)
(0.150975 2.63717 0.00157059)
(0.150975 2.63717 -0.00157059)
(0.150909 2.63717 -0.00471109)
(0.150779 2.63717 -0.00784955)
(0.150583 2.63717 -0.0109846)
(0.150322 2.63717 -0.0141149)
(0.149995 2.63717 -0.0172391)
(0.149604 2.63717 -0.0203559)
(0.149148 2.63717 -0.0234638)
(0.148628 2.63717 -0.0265615)
(0.148043 2.63717 -0.0296478)
(0.147394 2.63717 -0.0327213)
(0.146682 2.63717 -0.0357805)
(0.145906 2.63717 -0.0388243)
(0.145066 2.63717 -0.0418513)
(0.144164 2.63717 -0.0448602)
(0.1432 2.63717 -0.0478496)
(0.142173 2.63717 -0.0508184)
(0.141086 2.63717 -0.0537651)
(0.139936 2.63717 -0.0566886)
(0.138727 2.63717 -0.0595875)
(0.137457 2.63717 -0.0624606)
(0.136128 2.63717 -0.0653068)
(0.13474 2.63717 -0.0681246)
(0.133293 2.63717 -0.0709129)
(0.131789 2.63717 -0.0736706)
(0.130228 2.63717 -0.0763964)
(0.128611 2.63717 -0.0790891)
(0.126937 2.63717 -0.0817475)
(0.125209 2.63717 -0.0843706)
(0.123427 2.63717 -0.0869572)
(0.121591 2.63717 -0.0895061)
(0.119703 2.63717 -0.0920163)
(0.117763 2.63717 -0.0944866)
(0.115772 2.63717 -0.0969161)
(0.11373 2.63717 -0.0993036)
(0.11164 2.63717 -0.101648)
(0.109501 2.63717 -0.103949)
(0.107315 2.63717 -0.106204)
(0.105082 2.63717 -0.108414)
(0.102804 2.63717 -0.110576)
(0.100481 2.63717 -0.112691)
(0.0981152 2.63717 -0.114757)
(0.0957066 2.63717 -0.116774)
(0.0932565 2.63717 -0.118739)
(0.0907661 2.63717 -0.120654)
(0.0882364 2.63717 -0.122516)
(0.0856685 2.63717 -0.124325)
(0.0830636 2.63717 -0.12608)
(0.0804226 2.63717 -0.127781)
(0.0777469 2.63717 -0.129426)
(0.0750375 2.63717 -0.131016)
(0.0722957 2.63717 -0.132549)
(0.0695225 2.63717 -0.134024)
(0.0667193 2.63717 -0.135441)
(0.0638871 2.63717 -0.1368)
(0.0610274 2.63717 -0.1381)
(0.0581412 2.63717 -0.139339)
(0.0552298 2.63717 -0.140519)
(0.0522945 2.63717 -0.141637)
(0.0493366 2.63717 -0.142694)
(0.0463574 2.63717 -0.14369)
(0.0433581 2.63717 -0.144623)
(0.04034 2.63717 -0.145494)
(0.0373044 2.63717 -0.146302)
(0.0342527 2.63717 -0.147046)
(0.0311862 2.63717 -0.147727)
(0.0281062 2.63717 -0.148344)
(0.025014 2.63717 -0.148896)
(0.021911 2.63717 -0.149384)
(0.0187985 2.63717 -0.149808)
(0.0156779 2.63717 -0.150167)
(0.0125504 2.63717 -0.15046)
(0.00941759 2.63717 -0.150689)
(0.00628066 2.63717 -0.150852)
(0.00314101 2.63717 -0.15095)
(-5.84958e-16 2.63717 -0.150983)
(-0.00314101 2.63717 -0.15095)
(-0.00628066 2.63717 -0.150852)
(-0.00941759 2.63717 -0.150689)
(-0.0125504 2.63717 -0.15046)
(-0.0156779 2.63717 -0.150167)
(-0.0187985 2.63717 -0.149808)
(-0.021911 2.63717 -0.149384)
(-0.025014 2.63717 -0.148896)
(-0.0281062 2.63717 -0.148344)
(-0.0311862 2.63717 -0.147727)
(-0.0342527 2.63717 -0.147046)
(-0.0373044 2.63717 -0.146302)
(-0.04034 2.63717 -0.145494)
(-0.0433581 2.63717 -0.144623)
(-0.0463574 2.63717 -0.14369)
(-0.0493366 2.63717 -0.142694)
(-0.0522945 2.63717 -0.141637)
(-0.0552298 2.63717 -0.140519)
(-0.0581412 2.63717 -0.139339)
(-0.0610274 2.63717 -0.1381)
(-0.0638871 2.63717 -0.1368)
(-0.0667193 2.63717 -0.135441)
(-0.0695225 2.63717 -0.134024)
(-0.0722957 2.63717 -0.132549)
(-0.0750375 2.63717 -0.131016)
(-0.0777469 2.63717 -0.129426)
(-0.0804226 2.63717 -0.127781)
(-0.0830636 2.63717 -0.12608)
(-0.0856685 2.63717 -0.124325)
(-0.0882364 2.63717 -0.122516)
(-0.0907661 2.63717 -0.120654)
(-0.0932565 2.63717 -0.118739)
(-0.0957066 2.63717 -0.116774)
(-0.0981152 2.63717 -0.114757)
(-0.100481 2.63717 -0.112691)
(-0.102804 2.63717 -0.110576)
(-0.105082 2.63717 -0.108414)
(-0.107315 2.63717 -0.106204)
(-0.109501 2.63717 -0.103949)
(-0.11164 2.63717 -0.101648)
(-0.11373 2.63717 -0.0993036)
(-0.115772 2.63717 -0.0969161)
(-0.117763 2.63717 -0.0944866)
(-0.119703 2.63717 -0.0920163)
(-0.121591 2.63717 -0.0895061)
(-0.123427 2.63717 -0.0869572)
(-0.125209 2.63717 -0.0843706)
(-0.126937 2.63717 -0.0817475)
(-0.128611 2.63717 -0.0790891)
(-0.130228 2.63717 -0.0763964)
(-0.131789 2.63717 -0.0736706)
(-0.133293 2.63717 -0.0709129)
(-0.13474 2.63717 -0.0681246)
(-0.136128 2.63717 -0.0653068)
(-0.137457 2.63717 -0.0624606)
(-0.138727 2.63717 -0.0595875)
(-0.139936 2.63717 -0.0566886)
(-0.141086 2.63717 -0.0537651)
(-0.142173 2.63717 -0.0508184)
(-0.1432 2.63717 -0.0478496)
(-0.144164 2.63717 -0.0448602)
(-0.145066 2.63717 -0.0418513)
(-0.145906 2.63717 -0.0388243)
(-0.146682 2.63717 -0.0357805)
(-0.147394 2.63717 -0.0327213)
(-0.148043 2.63717 -0.0296478)
(-0.148628 2.63717 -0.0265615)
(-0.149148 2.63717 -0.0234638)
(-0.149604 2.63717 -0.0203559)
(-0.149995 2.63717 -0.0172391)
(-0.150322 2.63717 -0.0141149)
(-0.150583 2.63717 -0.0109846)
(-0.150779 2.63717 -0.00784955)
(-0.150909 2.63717 -0.00471109)
(-0.150975 2.63717 -0.00157059)
(-0.150975 2.63717 0.00157059)
(-0.150909 2.63717 0.00471109)
(-0.150779 2.63717 0.00784955)
(-0.150583 2.63717 0.0109846)
(-0.150322 2.63717 0.0141149)
(-0.149995 2.63717 0.0172391)
(-0.149604 2.63717 0.0203559)
(-0.149148 2.63717 0.0234638)
(-0.148628 2.63717 0.0265615)
(-0.148043 2.63717 0.0296478)
(-0.147394 2.63717 0.0327213)
(-0.146682 2.63717 0.0357805)
(-0.145906 2.63717 0.0388243)
(-0.145066 2.63717 0.0418513)
(-0.144164 2.63717 0.0448602)
(-0.1432 2.63717 0.0478496)
(-0.142173 2.63717 0.0508184)
(-0.141086 2.63717 0.0537651)
(-0.139936 2.63717 0.0566886)
(-0.138727 2.63717 0.0595875)
(-0.137457 2.63717 0.0624606)
(-0.136128 2.63717 0.0653068)
(-0.13474 2.63717 0.0681246)
(-0.133293 2.63717 0.0709129)
(-0.131789 2.63717 0.0736706)
(-0.130228 2.63717 0.0763964)
(-0.128611 2.63717 0.0790891)
(-0.126937 2.63717 0.0817475)
(-0.125209 2.63717 0.0843706)
(-0.123427 2.63717 0.0869572)
(-0.121591 2.63717 0.0895061)
(-0.119703 2.63717 0.0920163)
(-0.117763 2.63717 0.0944866)
(-0.115772 2.63717 0.0969161)
(-0.11373 2.63717 0.0993036)
(-0.11164 2.63717 0.101648)
(-0.109501 2.63717 0.103949)
(-0.107315 2.63717 0.106204)
(-0.105082 2.63717 0.108414)
(-0.102804 2.63717 0.110576)
(-0.100481 2.63717 0.112691)
(-0.0981152 2.63717 0.114757)
(-0.0957066 2.63717 0.116774)
(-0.0932565 2.63717 0.118739)
(-0.0907661 2.63717 0.120654)
(-0.0882364 2.63717 0.122516)
(-0.0856685 2.63717 0.124325)
(-0.0830636 2.63717 0.12608)
(-0.0804226 2.63717 0.127781)
(-0.0777469 2.63717 0.129426)
(-0.0750375 2.63717 0.131016)
(-0.0722957 2.63717 0.132549)
(-0.0695225 2.63717 0.134024)
(-0.0667193 2.63717 0.135441)
(-0.0638871 2.63717 0.1368)
(-0.0610274 2.63717 0.1381)
(-0.0581412 2.63717 0.139339)
(-0.0552298 2.63717 0.140519)
(-0.0522945 2.63717 0.141637)
(-0.0493366 2.63717 0.142694)
(-0.0463574 2.63717 0.14369)
(-0.0433581 2.63717 0.144623)
(-0.04034 2.63717 0.145494)
(-0.0373044 2.63717 0.146302)
(-0.0342527 2.63717 0.147046)
(-0.0311862 2.63717 0.147727)
(-0.0281062 2.63717 0.148344)
(-0.025014 2.63717 0.148896)
(-0.021911 2.63717 0.149384)
(-0.0187985 2.63717 0.149808)
(-0.0156779 2.63717 0.150167)
(-0.0125504 2.63717 0.15046)
(-0.00941759 2.63717 0.150689)
(-0.00628066 2.63717 0.150852)
(-0.00314101 2.63717 0.15095)
(-3.69801e-17 2.45572 0.150983)
(0.0023381 2.4537 0.150965)
(0.00468485 2.45169 0.15091)
(0.00703998 2.4497 0.150819)
(0.0094032 2.44772 0.15069)
(0.0117742 2.44575 0.150523)
(0.0141527 2.44379 0.150318)
(0.0165383 2.44185 0.150074)
(0.0189308 2.43992 0.149791)
(0.0213297 2.438 0.149468)
(0.0237347 2.4361 0.149106)
(0.0261453 2.43421 0.148702)
(0.0271516 2.42976 0.148521)
(0.0257363 2.42718 0.148773)
(0.0243153 2.42459 0.149012)
(0.0228885 2.42201 0.149238)
(0.021456 2.41944 0.14945)
(0.0200177 2.41686 0.14965)
(0.0185736 2.41429 0.149836)
(0.0149615 2.41348 0.15024)
(0.0128049 2.41524 0.150439)
(0.0106544 2.41702 0.150606)
(0.0085101 2.41881 0.150743)
(0.0063723 2.42061 0.150848)
(0.00211705 2.42423 0.150968)
(-3.69801e-17 2.42606 0.150983)
(-3.69801e-17 2.39559 0.150983)
(0.00314101 2.39559 0.15095)
(0.00628066 2.39559 0.150852)
(0.00941759 2.39559 0.150689)
(0.0125504 2.39559 0.15046)
(0.0156779 2.39559 0.150167)
(0.0187985 2.39559 0.149808)
(0.021911 2.39559 0.149384)
(0.025014 2.39559 0.148896)
(0.0281062 2.39559 0.148344)
(0.0311862 2.39559 0.147727)
(0.0342527 2.39559 0.147046)
(0.0373044 2.39559 0.146302)
(0.04034 2.39559 0.145494)
(0.0433581 2.39559 0.144623)
(0.0463574 2.39559 0.14369)
(0.0493366 2.39559 0.142694)
(0.0522945 2.39559 0.141637)
(0.0552298 2.39559 0.140519)
(0.0581412 2.39559 0.139339)
(0.0610274 2.39559 0.1381)
(0.0638871 2.39559 0.1368)
(0.0667193 2.39559 0.135441)
(0.0695225 2.39559 0.134024)
(0.0722957 2.39559 0.132549)
(0.0750375 2.39559 0.131016)
(0.0777469 2.39559 0.129426)
(0.0804226 2.39559 0.127781)
(0.0830636 2.39559 0.12608)
(0.0856685 2.39559 0.124325)
(0.0882364 2.39559 0.122516)
(0.0907661 2.39559 0.120654)
(0.0932565 2.39559 0.118739)
(0.0957066 2.39559 0.116774)
(0.0981152 2.39559 0.114757)
(0.100481 2.39559 0.112691)
(0.102804 2.39559 0.110576)
(0.105082 2.39559 0.108414)
(0.107315 2.39559 0.106204)
(0.109501 2.39559 0.103949)
(0.11164 2.39559 0.101648)
(0.11373 2.39559 0.0993036)
(0.115772 2.39559 0.0969161)
(0.117763 2.39559 0.0944866)
(0.119703 2.39559 0.0920163)
(0.121591 2.39559 0.0895061)
(0.123427 2.39559 0.0869572)
(0.125209 2.39559 0.0843706)
(0.126937 2.39559 0.0817475)
(0.128611 2.39559 0.0790891)
(0.130228 2.39559 0.0763964)
(0.131789 2.39559 0.0736706)
(0.133293 2.39559 0.0709129)
(0.13474 2.39559 0.0681246)
(0.136128 2.39559 0.0653068)
(0.137457 2.39559 0.0624606)
(0.138727 2.39559 0.0595875)
(0.139936 2.39559 0.0566886)
(0.141086 2.39559 0.0537651)
(0.142173 2.39559 0.0508184)
(0.1432 2.39559 0.0478496)
(0.144164 2.39559 0.0448602)
(0.145066 2.39559 0.0418513)
(0.145906 2.39559 0.0388243)
(0.146682 2.39559 0.0357805)
(0.147394 2.39559 0.0327213)
(0.148043 2.39559 0.0296478)
(0.148628 2.39559 0.0265615)
(0.149148 2.39559 0.0234638)
(0.149604 2.39559 0.0203559)
(0.149995 2.39559 0.0172391)
(0.150322 2.39559 0.0141149)
(0.150583 2.39559 0.0109846)
(0.150779 2.39559 0.00784955)
(0.150909 2.39559 0.00471109)
(0.150975 2.39559 0.00157059)
(0.150975 2.39559 -0.00157059)
(0.150909 2.39559 -0.00471109)
(0.150779 2.39559 -0.00784955)
(0.150583 2.39559 -0.0109846)
(0.150322 2.39559 -0.0141149)
(0.149995 2.39559 -0.0172391)
(0.149604 2.39559 -0.0203559)
(0.149148 2.39559 -0.0234638)
(0.148628 2.39559 -0.0265615)
(0.148043 2.39559 -0.0296478)
(0.147394 2.39559 -0.0327213)
(0.146682 2.39559 -0.0357805)
(0.145906 2.39559 -0.0388243)
(0.145066 2.39559 -0.0418513)
(0.144164 2.39559 -0.0448602)
(0.1432 2.39559 -0.0478496)
(0.142173 2.39559 -0.0508184)
(0.141086 2.39559 -0.0537651)
(0.139936 2.39559 -0.0566886)
(0.138727 2.39559 -0.0595875)
(0.137457 2.39559 -0.0624606)
(0.136128 2.39559 -0.0653068)
(0.13474 2.39559 -0.0681246)
(0.133293 2.39559 -0.0709129)
(0.131789 2.39559 -0.0736706)
(0.130228 2.39559 -0.0763964)
(0.128611 2.39559 -0.0790891)
(0.126937 2.39559 -0.0817475)
(0.125209 2.39559 -0.0843706)
(0.123427 2.39559 -0.0869572)
(0.121591 2.39559 -0.0895061)
(0.119703 2.39559 -0.0920163)
(0.117763 2.39559 -0.0944866)
(0.115772 2.39559 -0.0969161)
(0.11373 2.39559 -0.0993036)
(0.11164 2.39559 -0.101648)
(0.109501 2.39559 -0.103949)
(0.107315 2.39559 -0.106204)
(0.105082 2.39559 -0.108414)
(0.102804 2.39559 -0.110576)
(0.100481 2.39559 -0.112691)
(0.0981152 2.39559 -0.114757)
(0.0957066 2.39559 -0.116774)
(0.0932565 2.39559 -0.118739)
(0.0907661 2.39559 -0.120654)
(0.0882364 2.39559 -0.122516)
(0.0856685 2.39559 -0.124325)
(0.0830636 2.39559 -0.12608)
(0.0804226 2.39559 -0.127781)
(0.0777469 2.39559 -0.129426)
(0.0750375 2.39559 -0.131016)
(0.0722957 2.39559 -0.132549)
(0.0695225 2.39559 -0.134024)
(0.0667193 2.39559 -0.135441)
(0.0638871 2.39559 -0.1368)
(0.0610274 2.39559 -0.1381)
(0.0581412 2.39559 -0.139339)
(0.0552298 2.39559 -0.140519)
(0.0522945 2.39559 -0.141637)
(0.0493366 2.39559 -0.142694)
(0.0463574 2.39559 -0.14369)
(0.0433581 2.39559 -0.144623)
(0.04034 2.39559 -0.145494)
(0.0373044 2.39559 -0.146302)
(0.0342527 2.39559 -0.147046)
(0.0311862 2.39559 -0.147727)
(0.0281062 2.39559 -0.148344)
(0.025014 2.39559 -0.148896)
(0.021911 2.39559 -0.149384)
(0.0187985 2.39559 -0.149808)
(0.0156779 2.39559 -0.150167)
(0.0125504 2.39559 -0.15046)
(0.00941759 2.39559 -0.150689)
(0.00628066 2.39559 -0.150852)
(0.00314101 2.39559 -0.15095)
(-5.84958e-16 2.39559 -0.150983)
(-0.00314101 2.39559 -0.15095)
(-0.00628066 2.39559 -0.150852)
(-0.00941759 2.39559 -0.150689)
(-0.0125504 2.39559 -0.15046)
(-0.0156779 2.39559 -0.150167)
(-0.0187985 2.39559 -0.149808)
(-0.021911 2.39559 -0.149384)
(-0.025014 2.39559 -0.148896)
(-0.0281062 2.39559 -0.148344)
(-0.0311862 2.39559 -0.147727)
(-0.0342527 2.39559 -0.147046)
(-0.0373044 2.39559 -0.146302)
(-0.04034 2.39559 -0.145494)
(-0.0433581 2.39559 -0.144623)
(-0.0463574 2.39559 -0.14369)
(-0.0493366 2.39559 -0.142694)
(-0.0522945 2.39559 -0.141637)
(-0.0552298 2.39559 -0.140519)
(-0.0581412 2.39559 -0.139339)
(-0.0610274 2.39559 -0.1381)
(-0.0638871 2.39559 -0.1368)
(-0.0667193 2.39559 -0.135441)
(-0.0695225 2.39559 -0.134024)
(-0.0722957 2.39559 -0.132549)
(-0.0750375 2.39559 -0.131016)
(-0.0777469 2.39559 -0.129426)
(-0.0804226 2.39559 -0.127781)
(-0.0830636 2.39559 -0.12608)
(-0.0856685 2.39559 -0.124325)
(-0.0882364 2.39559 -0.122516)
(-0.0907661 2.39559 -0.120654)
(-0.0932565 2.39559 -0.118739)
(-0.0957066 2.39559 -0.116774)
(-0.0981152 2.39559 -0.114757)
(-0.100481 2.39559 -0.112691)
(-0.102804 2.39559 -0.110576)
(-0.105082 2.39559 -0.108414)
(-0.107315 2.39559 -0.106204)
(-0.109501 2.39559 -0.103949)
(-0.11164 2.39559 -0.101648)
(-0.11373 2.39559 -0.0993036)
(-0.115772 2.39559 -0.0969161)
(-0.117763 2.39559 -0.0944866)
(-0.119703 2.39559 -0.0920163)
(-0.121591 2.39559 -0.0895061)
(-0.123427 2.39559 -0.0869572)
(-0.125209 2.39559 -0.0843706)
(-0.126937 2.39559 -0.0817475)
(-0.128611 2.39559 -0.0790891)
(-0.130228 2.39559 -0.0763964)
(-0.131789 2.39559 -0.0736706)
(-0.133293 2.39559 -0.0709129)
(-0.13474 2.39559 -0.0681246)
(-0.136128 2.39559 -0.0653068)
(-0.137457 2.39559 -0.0624606)
(-0.138727 2.39559 -0.0595875)
(-0.139936 2.39559 -0.0566886)
(-0.141086 2.39559 -0.0537651)
(-0.142173 2.39559 -0.0508184)
(-0.1432 2.39559 -0.0478496)
(-0.144164 2.39559 -0.0448602)
(-0.145066 2.39559 -0.0418513)
(-0.145906 2.39559 -0.0388243)
(-0.146682 2.39559 -0.0357805)
(-0.147394 2.39559 -0.0327213)
(-0.148043 2.39559 -0.0296478)
(-0.148628 2.39559 -0.0265615)
(-0.149148 2.39559 -0.0234638)
(-0.149604 2.39559 -0.0203559)
(-0.149995 2.39559 -0.0172391)
(-0.150322 2.39559 -0.0141149)
(-0.150583 2.39559 -0.0109846)
(-0.150779 2.39559 -0.00784955)
(-0.150909 2.39559 -0.00471109)
(-0.150975 2.39559 -0.00157059)
(-0.150975 2.39559 0.00157059)
(-0.150909 2.39559 0.00471109)
(-0.150779 2.39559 0.00784955)
(-0.150583 2.39559 0.0109846)
(-0.150322 2.39559 0.0141149)
(-0.149995 2.39559 0.0172391)
(-0.149604 2.39559 0.0203559)
(-0.149148 2.39559 0.0234638)
(-0.148628 2.39559 0.0265615)
(-0.148043 2.39559 0.0296478)
(-0.147394 2.39559 0.0327213)
(-0.146682 2.39559 0.0357805)
(-0.145906 2.39559 0.0388243)
(-0.145066 2.39559 0.0418513)
(-0.144164 2.39559 0.0448602)
(-0.1432 2.39559 0.0478496)
(-0.142173 2.39559 0.0508184)
(-0.141086 2.39559 0.0537651)
(-0.139936 2.39559 0.0566886)
(-0.138727 2.39559 0.0595875)
(-0.137457 2.39559 0.0624606)
(-0.136128 2.39559 0.0653068)
(-0.13474 2.39559 0.0681246)
(-0.133293 2.39559 0.0709129)
(-0.131789 2.39559 0.0736706)
(-0.130228 2.39559 0.0763964)
(-0.128611 2.39559 0.0790891)
(-0.126937 2.39559 0.0817475)
(-0.125209 2.39559 0.0843706)
(-0.123427 2.39559 0.0869572)
(-0.121591 2.39559 0.0895061)
(-0.119703 2.39559 0.0920163)
(-0.117763 2.39559 0.0944866)
(-0.115772 2.39559 0.0969161)
(-0.11373 2.39559 0.0993036)
(-0.11164 2.39559 0.101648)
(-0.109501 2.39559 0.103949)
(-0.107315 2.39559 0.106204)
(-0.105082 2.39559 0.108414)
(-0.102804 2.39559 0.110576)
(-0.100481 2.39559 0.112691)
(-0.0981152 2.39559 0.114757)
(-0.0957066 2.39559 0.116774)
(-0.0932565 2.39559 0.118739)
(-0.0907661 2.39559 0.120654)
(-0.0882364 2.39559 0.122516)
(-0.0856685 2.39559 0.124325)
(-0.0830636 2.39559 0.12608)
(-0.0804226 2.39559 0.127781)
(-0.0777469 2.39559 0.129426)
(-0.0750375 2.39559 0.131016)
(-0.0722957 2.39559 0.132549)
(-0.0695225 2.39559 0.134024)
(-0.0667193 2.39559 0.135441)
(-0.0638871 2.39559 0.1368)
(-0.0610274 2.39559 0.1381)
(-0.0581412 2.39559 0.139339)
(-0.0552298 2.39559 0.140519)
(-0.0522945 2.39559 0.141637)
(-0.0493366 2.39559 0.142694)
(-0.0463574 2.39559 0.14369)
(-0.0433581 2.39559 0.144623)
(-0.04034 2.39559 0.145494)
(-0.0373044 2.39559 0.146302)
(-0.0342527 2.39559 0.147046)
(-0.0311862 2.39559 0.147727)
(-0.0281062 2.39559 0.148344)
(-0.025014 2.39559 0.148896)
(-0.021911 2.39559 0.149384)
(-0.0187985 2.39559 0.149808)
(-0.0156779 2.39559 0.150167)
(-0.0125504 2.39559 0.15046)
(-0.00941759 2.39559 0.150689)
(-0.00628066 2.39559 0.150852)
(-0.00314101 2.39559 0.15095)
(-0.00235273 2.42811 0.150964)
(-0.0046961 2.43016 0.15091)
(-0.00702983 2.43223 0.150819)
(-0.0093537 2.43431 0.150693)
(-0.0116674 2.43639 0.150531)
(-0.0139709 2.43848 0.150335)
(-0.0162637 2.44058 0.150104)
(-0.0185457 2.44269 0.149839)
(-0.0208168 2.44481 0.149541)
(-0.0230766 2.44693 0.149209)
(-0.0253251 2.44906 0.148844)
(-0.0275619 2.4512 0.148446)
(-0.0297869 2.45334 0.148015)
(-0.0319999 2.45549 0.147553)
(-0.0342008 2.45764 0.147058)
(-0.0363892 2.4598 0.146532)
(-0.0385651 2.46196 0.145974)
(-0.0407282 2.46413 0.145386)
(-0.0428785 2.4663 0.144766)
(-0.0450156 2.46848 0.144116)
(-0.0471394 2.47066 0.143435)
(-0.0492498 2.47284 0.142724)
(-0.0513465 2.47503 0.141984)
(-0.0534294 2.47722 0.141213)
(-0.0554983 2.47941 0.140413)
(-0.057553 2.4816 0.139583)
(-0.0595933 2.4838 0.138724)
(-0.0616191 2.486 0.137836)
(-0.0636302 2.4882 0.13692)
(-0.0656263 2.4904 0.135974)
(-0.0676073 2.4926 0.135)
(-0.069573 2.49481 0.133998)
(-0.0715232 2.49701 0.132967)
(-0.0734577 2.49921 0.131908)
(-0.0753764 2.50142 0.130821)
(-0.0772789 2.50362 0.129707)
(-0.0791652 2.50583 0.128564)
(-0.0810349 2.50803 0.127394)
(-0.082888 2.51024 0.126196)
(-0.084724 2.51244 0.124971)
(-0.086543 2.51464 0.123718)
(-0.0883446 2.51684 0.122438)
(-0.0901285 2.51904 0.121131)
(-0.0918946 2.52124 0.119796)
(-0.0936426 2.52343 0.118435)
(-0.0953723 2.52562 0.117047)
(-0.0970834 2.52781 0.115631)
(-0.0987756 2.53 0.114189)
(-0.100449 2.53218 0.11272)
(-0.102102 2.53436 0.111225)
(-0.103736 2.53654 0.109702)
(-0.105351 2.53871 0.108153)
(-0.106945 2.54088 0.106577)
(-0.108518 2.54304 0.104975)
(-0.11007 2.5452 0.103346)
(-0.111602 2.54736 0.10169)
(-0.113111 2.5495 0.100008)
(-0.114599 2.55165 0.0982997)
(-0.116065 2.55379 0.0965647)
(-0.117508 2.55592 0.0948033)
(-0.118928 2.55804 0.0930154)
(-0.120325 2.56016 0.0912011)
(-0.121698 2.56227 0.0893603)
(-0.123048 2.56437 0.0874932)
(-0.124372 2.56646 0.0855997)
(-0.125672 2.56855 0.0836799)
(-0.126946 2.57062 0.0817337)
(-0.128195 2.57269 0.0797611)
(-0.129417 2.57475 0.0777622)
(-0.130613 2.5768 0.075737)
(-0.131781 2.57884 0.0736855)
(-0.132922 2.58086 0.0716078)
(-0.134034 2.58288 0.0695038)
(-0.135117 2.58488 0.0673736)
(-0.136171 2.58687 0.0652172)
(-0.137195 2.58885 0.0630346)
(-0.138188 2.59081 0.060826)
(-0.139151 2.59276 0.0585913)
(-0.140081 2.5947 0.0563307)
(-0.140979 2.59662 0.0540441)
(-0.141844 2.59853 0.0517317)
(-0.142199 2.603 0.0507467)
(-0.14171 2.60558 0.0520982)
(-0.141206 2.60817 0.0534483)
(-0.140688 2.61074 0.0547969)
(-0.140156 2.61332 0.0561438)
(-0.13961 2.6159 0.0574891)
(-0.139049 2.61847 0.0588328)
(-0.137485 2.61907 0.0623993)
(-0.136466 2.61709 0.0645977)
(-0.135416 2.6151 0.0667697)
(-0.134337 2.61309 0.0689154)
(-0.133229 2.61107 0.0710346)
(-0.132092 2.60904 0.0731274)
(-0.130926 2.607 0.0751938)
(-0.129733 2.60494 0.0772336)
(-0.128514 2.60288 0.079247)
(-0.127267 2.60081 0.0812338)
(-0.125994 2.59873 0.0831941)
(-0.124696 2.59663 0.0851279)
(-0.123372 2.59453 0.0870351)
(-0.122024 2.59243 0.0889157)
(-0.120651 2.59031 0.0907697)
(-0.119254 2.58819 0.0925971)
(-0.117834 2.58606 0.0943979)
(-0.11639 2.58392 0.096172)
(-0.114924 2.58177 0.0979195)
(-0.113435 2.57962 0.0996403)
(-0.111925 2.57747 0.101334)
(-0.110392 2.57531 0.103002)
(-0.108838 2.57314 0.104643)
(-0.107263 2.57097 0.106256)
(-0.105667 2.5688 0.107844)
(-0.104051 2.56662 0.109404)
(-0.102415 2.56443 0.110937)
(-0.100758 2.56224 0.112444)
(-0.0990823 2.56005 0.113923)
(-0.097387 2.55786 0.115376)
(-0.0956728 2.55566 0.116801)
(-0.0939398 2.55346 0.118199)
(-0.0921882 2.55126 0.119571)
(-0.0904184 2.54906 0.120914)
(-0.0886305 2.54685 0.122231)
(-0.0868249 2.54464 0.12352)
(-0.0850017 2.54243 0.124782)
(-0.0831612 2.54022 0.126016)
(-0.0813036 2.53801 0.127222)
(-0.0794291 2.53579 0.128401)
(-0.077538 2.53358 0.129552)
(-0.0756304 2.53137 0.130675)
(-0.0737066 2.52916 0.131769)
(-0.0717667 2.52694 0.132836)
(-0.069811 2.52473 0.133874)
(-0.0678397 2.52252 0.134884)
(-0.0658529 2.52031 0.135865)
(-0.0638509 2.5181 0.136817)
(-0.0618338 2.51589 0.13774)
(-0.0598019 2.51368 0.138635)
(-0.0577553 2.51148 0.1395)
(-0.0556942 2.50927 0.140335)
(-0.0536187 2.50707 0.141141)
(-0.0515292 2.50487 0.141917)
(-0.0494257 2.50268 0.142664)
(-0.0473084 2.50049 0.14338)
(-0.0451775 2.4983 0.144065)
(-0.0430332 2.49611 0.14472)
(-0.0408758 2.49394 0.145344)
(-0.0387053 2.49176 0.145937)
(-0.0365219 2.48959 0.146499)
(-0.0343259 2.48742 0.147029)
(-0.0321173 2.48526 0.147527)
(-0.0298965 2.4831 0.147993)
(-0.0276636 2.48095 0.148427)
(-0.0254188 2.47881 0.148828)