/*--------------------------------*- C++ -*----------------------------------*\
  =========                 |
  \\      /  F ield         | OpenFOAM: The Open Source CFD Toolbox
   \\    /   O peration     | Website:  https://openfoam.org
    \\  /    A nd           | Version:  10
     \\/     M anipulation  |
\*---------------------------------------------------------------------------*/
FoamFile
{
    format      ascii;
    class       featureEdgeMesh;
    location    "constant/triSurface";
    object      outlet.eMesh;
}
// * * * * * * * * * * * * * * * * * * * * * * * * * * * * * * * * * * * * * //


// points:

3232
(
(-0.0104849 5.03276 -1.21621)
(0.0104849 5.03276 -1.21621)
(0.0104849 5.03276 -1.0065)
(-0.0104849 5.03276 -1.0065)
(-1.21621 5.03276 0.0104849)
(-1.21621 5.03276 -0.0104849)
(-1.0065 5.03276 -0.0104849)
(-1.0065 5.03276 0.0104849)
(1.21621 5.03276 -0.0104849)
(1.21621 5.03276 0.0104849)
(1.0065 5.03276 0.0104849)
(1.0065 5.03276 -0.0104849)
(0.0104849 5.03276 1.21621)
(-0.0104849 5.03276 1.21621)
(-0.0104849 5.03276 1.0065)
(0.0104849 5.03276 1.0065)
(-3.08168e-16 5.03276 1.25819)
(0.00314456 5.03276 1.25819)
(0.00628911 5.03276 1.25817)
(0.00943361 5.03276 1.25815)
(0.0125781 5.03276 1.25813)
(0.0157224 5.03276 1.25809)
(0.0188667 5.03276 1.25805)
(0.0220108 5.03276 1.258)
(0.0251549 5.03276 1.25794)
(0.0282987 5.03276 1.25787)
(0.0314424 5.03276 1.2578)
(0.0345859 5.03276 1.25771)
(0.0377291 5.03276 1.25762)
(0.0408722 5.03276 1.25753)
(0.0440149 5.03276 1.25742)
(0.0471575 5.03276 1.25731)
(0.0502997 5.03276 1.25718)
(0.0534416 5.03276 1.25705)
(0.0565831 5.03276 1.25692)
(0.0597243 5.03276 1.25677)
(0.0628651 5.03276 1.25662)
(0.0660056 5.03276 1.25646)
(0.0691456 5.03276 1.25629)
(0.0722852 5.03276 1.25611)
(0.0754244 5.03276 1.25593)
(0.078563 5.03276 1.25574)
(0.0817012 5.03276 1.25553)
(0.0848389 5.03276 1.25533)
(0.087976 5.03276 1.25511)
(0.0911126 5.03276 1.25489)
(0.0942486 5.03276 1.25466)
(0.0973841 5.03276 1.25442)
(0.100519 5.03276 1.25417)
(0.103653 5.03276 1.25391)
(0.106787 5.03276 1.25365)
(0.10992 5.03276 1.25338)
(0.113052 5.03276 1.2531)
(0.116183 5.03276 1.25281)
(0.119314 5.03276 1.25252)
(0.122444 5.03276 1.25222)
(0.125573 5.03276 1.25191)
(0.128702 5.03276 1.25159)
(0.131829 5.03276 1.25126)
(0.134956 5.03276 1.25093)
(0.138082 5.03276 1.25059)
(0.141207 5.03276 1.25024)
(0.144332 5.03276 1.24988)
(0.147455 5.03276 1.24952)
(0.150577 5.03276 1.24915)
(0.153699 5.03276 1.24877)
(0.156819 5.03276 1.24838)
(0.159939 5.03276 1.24798)
(0.163058 5.03276 1.24758)
(0.166175 5.03276 1.24717)
(0.169292 5.03276 1.24675)
(0.172407 5.03276 1.24632)
(0.175521 5.03276 1.24589)
(0.178635 5.03276 1.24544)
(0.181747 5.03276 1.24499)
(0.184858 5.03276 1.24454)
(0.187968 5.03276 1.24407)
(0.191076 5.03276 1.2436)
(0.194184 5.03276 1.24311)
(0.19729 5.03276 1.24263)
(0.200395 5.03276 1.24213)
(0.203499 5.03276 1.24162)
(0.206602 5.03276 1.24111)
(0.209703 5.03276 1.24059)
(0.212803 5.03276 1.24006)
(0.215901 5.03276 1.23953)
(0.218999 5.03276 1.23898)
(0.222094 5.03276 1.23843)
(0.225189 5.03276 1.23787)
(0.228282 5.03276 1.23731)
(0.231374 5.03276 1.23673)
(0.234464 5.03276 1.23615)
(0.237553 5.03276 1.23556)
(0.24064 5.03276 1.23496)
(0.243726 5.03276 1.23436)
(0.24681 5.03276 1.23374)
(0.249893 5.03276 1.23312)
(0.252974 5.03276 1.2325)
(0.256053 5.03276 1.23186)
(0.259131 5.03276 1.23122)
(0.262208 5.03276 1.23056)
(0.265282 5.03276 1.22991)
(0.268355 5.03276 1.22924)
(0.271427 5.03276 1.22856)
(0.274496 5.03276 1.22788)
(0.277564 5.03276 1.22719)
(0.28063 5.03276 1.22649)
(0.283695 5.03276 1.22579)
(0.286758 5.03276 1.22508)
(0.289819 5.03276 1.22436)
(0.292878 5.03276 1.22363)
(0.295935 5.03276 1.22289)
(0.29899 5.03276 1.22215)
(0.302044 5.03276 1.2214)
(0.305096 5.03276 1.22064)
(0.308145 5.03276 1.21987)
(0.311193 5.03276 1.2191)
(0.314239 5.03276 1.21832)
(0.317283 5.03276 1.21753)
(0.320325 5.03276 1.21673)
(0.323365 5.03276 1.21593)
(0.326403 5.03276 1.21511)
(0.329439 5.03276 1.2143)
(0.332473 5.03276 1.21347)
(0.335504 5.03276 1.21263)
(0.338534 5.03276 1.21179)
(0.341561 5.03276 1.21094)
(0.344587 5.03276 1.21008)
(0.34761 5.03276 1.20922)
(0.350631 5.03276 1.20835)
(0.35365 5.03276 1.20747)
(0.356667 5.03276 1.20658)
(0.359681 5.03276 1.20568)
(0.362693 5.03276 1.20478)
(0.365703 5.03276 1.20387)
(0.368711 5.03276 1.20295)
(0.371716 5.03276 1.20203)
(0.374719 5.03276 1.20109)
(0.37772 5.03276 1.20015)
(0.380718 5.03276 1.19921)
(0.383714 5.03276 1.19825)
(0.386708 5.03276 1.19729)
(0.389699 5.03276 1.19632)
(0.392688 5.03276 1.19534)
(0.395674 5.03276 1.19436)
(0.398658 5.03276 1.19336)
(0.401639 5.03276 1.19236)
(0.404618 5.03276 1.19135)
(0.407594 5.03276 1.19034)
(0.410568 5.03276 1.18932)
(0.413539 5.03276 1.18829)
(0.416508 5.03276 1.18725)
(0.419474 5.03276 1.18621)
(0.422437 5.03276 1.18515)
(0.425398 5.03276 1.18409)
(0.428356 5.03276 1.18303)
(0.431311 5.03276 1.18195)
(0.434264 5.03276 1.18087)
(0.437214 5.03276 1.17978)
(0.440161 5.03276 1.17869)
(0.443105 5.03276 1.17758)
(0.446047 5.03276 1.17647)
(0.448986 5.03276 1.17535)
(0.451922 5.03276 1.17423)
(0.454856 5.03276 1.17309)
(0.457786 5.03276 1.17195)
(0.460714 5.03276 1.1708)
(0.463638 5.03276 1.16965)
(0.46656 5.03276 1.16849)
(0.469479 5.03276 1.16732)
(0.472395 5.03276 1.16614)
(0.475308 5.03276 1.16496)
(0.478218 5.03276 1.16376)
(0.481125 5.03276 1.16257)
(0.484029 5.03276 1.16136)
(0.48693 5.03276 1.16015)
(0.489828 5.03276 1.15893)
(0.492723 5.03276 1.1577)
(0.495615 5.03276 1.15646)
(0.498504 5.03276 1.15522)
(0.50139 5.03276 1.15397)
(0.504272 5.03276 1.15271)
(0.507151 5.03276 1.15145)
(0.510028 5.03276 1.15018)
(0.512901 5.03276 1.1489)
(0.515771 5.03276 1.14762)
(0.518637 5.03276 1.14632)
(0.521501 5.03276 1.14502)
(0.524361 5.03276 1.14372)
(0.527217 5.03276 1.1424)
(0.530071 5.03276 1.14108)
(0.532921 5.03276 1.13975)
(0.535768 5.03276 1.13842)
(0.538612 5.03276 1.13707)
(0.541452 5.03276 1.13573)
(0.544289 5.03276 1.13437)
(0.547122 5.03276 1.13301)
(0.549952 5.03276 1.13163)
(0.552778 5.03276 1.13026)
(0.555602 5.03276 1.12887)
(0.558421 5.03276 1.12748)
(0.561237 5.03276 1.12608)
(0.56405 5.03276 1.12467)
(0.566859 5.03276 1.12326)
(0.569665 5.03276 1.12184)
(0.572467 5.03276 1.12041)
(0.575265 5.03276 1.11898)
(0.57806 5.03276 1.11754)
(0.580851 5.03276 1.11609)
(0.583639 5.03276 1.11463)
(0.586423 5.03276 1.11317)
(0.589203 5.03276 1.1117)
(0.59198 5.03276 1.11023)
(0.594753 5.03276 1.10874)
(0.597522 5.03276 1.10725)
(0.600287 5.03276 1.10576)
(0.603049 5.03276 1.10425)
(0.605807 5.03276 1.10274)
(0.608561 5.03276 1.10122)
(0.611311 5.03276 1.0997)
(0.614058 5.03276 1.09817)
(0.616801 5.03276 1.09663)
(0.619539 5.03276 1.09509)
(0.622275 5.03276 1.09353)
(0.625006 5.03276 1.09197)
(0.627733 5.03276 1.09041)
(0.630456 5.03276 1.08884)
(0.633175 5.03276 1.08726)
(0.635891 5.03276 1.08567)
(0.638602 5.03276 1.08408)
(0.64131 5.03276 1.08248)
(0.644013 5.03276 1.08087)
(0.646712 5.03276 1.07926)
(0.649408 5.03276 1.07764)
(0.652099 5.03276 1.07601)
(0.654786 5.03276 1.07438)
(0.657469 5.03276 1.07274)
(0.660148 5.03276 1.0711)
(0.662823 5.03276 1.06944)
(0.665494 5.03276 1.06778)
(0.668161 5.03276 1.06612)
(0.670823 5.03276 1.06444)
(0.673481 5.03276 1.06276)
(0.676135 5.03276 1.06108)
(0.678785 5.03276 1.05938)
(0.681431 5.03276 1.05768)
(0.684072 5.03276 1.05598)
(0.686709 5.03276 1.05426)
(0.689342 5.03276 1.05254)
(0.69197 5.03276 1.05082)
(0.694595 5.03276 1.04909)
(0.697214 5.03276 1.04735)
(0.69983 5.03276 1.0456)
(0.702441 5.03276 1.04385)
(0.705047 5.03276 1.04209)
(0.70765 5.03276 1.04032)
(0.710248 5.03276 1.03855)
(0.712841 5.03276 1.03677)
(0.71543 5.03276 1.03499)
(0.718014 5.03276 1.0332)
(0.720594 5.03276 1.0314)
(0.72317 5.03276 1.0296)
(0.725741 5.03276 1.02778)
(0.728307 5.03276 1.02597)
(0.730869 5.03276 1.02414)
(0.733427 5.03276 1.02232)
(0.735979 5.03276 1.02048)
(0.738527 5.03276 1.01864)
(0.741071 5.03276 1.01679)
(0.74361 5.03276 1.01493)
(0.746144 5.03276 1.01307)
(0.748674 5.03276 1.0112)
(0.751199 5.03276 1.00933)
(0.753719 5.03276 1.00745)
(0.756235 5.03276 1.00556)
(0.758745 5.03276 1.00367)
(0.761251 5.03276 1.00177)
(0.763753 5.03276 0.999862)
(0.766249 5.03276 0.99795)
(0.768741 5.03276 0.996032)
(0.771228 5.03276 0.994107)
(0.77371 5.03276 0.992177)
(0.776187 5.03276 0.99024)
(0.77866 5.03276 0.988297)
(0.781128 5.03276 0.986348)
(0.78359 5.03276 0.984392)
(0.786048 5.03276 0.982431)
(0.788501 5.03276 0.980463)
(0.790949 5.03276 0.978489)
(0.793392 5.03276 0.97651)
(0.79583 5.03276 0.974524)
(0.798263 5.03276 0.972532)
(0.800691 5.03276 0.970533)
(0.803114 5.03276 0.968529)
(0.805533 5.03276 0.966519)
(0.807946 5.03276 0.964503)
(0.810354 5.03276 0.96248)
(0.812757 5.03276 0.960452)
(0.815154 5.03276 0.958418)
(0.817547 5.03276 0.956378)
(0.819935 5.03276 0.954331)
(0.822318 5.03276 0.952279)
(0.824695 5.03276 0.950221)
(0.827067 5.03276 0.948157)
(0.829434 5.03276 0.946087)
(0.831796 5.03276 0.944011)
(0.834153 5.03276 0.941929)
(0.836505 5.03276 0.939841)
(0.838851 5.03276 0.937748)
(0.841192 5.03276 0.935648)
(0.843528 5.03276 0.933543)
(0.845858 5.03276 0.931432)
(0.848184 5.03276 0.929315)
(0.850504 5.03276 0.927192)
(0.852818 5.03276 0.925064)
(0.855128 5.03276 0.922929)
(0.857432 5.03276 0.920789)
(0.85973 5.03276 0.918643)
(0.862023 5.03276 0.916492)
(0.864311 5.03276 0.914334)
(0.866594 5.03276 0.912171)
(0.868871 5.03276 0.910003)
(0.871143 5.03276 0.907828)
(0.873409 5.03276 0.905648)
(0.875669 5.03276 0.903463)
(0.877925 5.03276 0.901271)
(0.880175 5.03276 0.899074)
(0.882419 5.03276 0.896872)
(0.884658 5.03276 0.894664)
(0.886891 5.03276 0.89245)
(0.889118 5.03276 0.89023)
(0.891341 5.03276 0.888005)
(0.893557 5.03276 0.885775)
(0.895768 5.03276 0.883539)
(0.897974 5.03276 0.881297)
(0.900173 5.03276 0.87905)
(0.902368 5.03276 0.876798)
(0.904556 5.03276 0.87454)
(0.906739 5.03276 0.872276)
(0.908916 5.03276 0.870007)
(0.911088 5.03276 0.867733)
(0.913254 5.03276 0.865453)
(0.915414 5.03276 0.863168)
(0.917568 5.03276 0.860878)
(0.919717 5.03276 0.858582)
(0.92186 5.03276 0.85628)
(0.923997 5.03276 0.853974)
(0.926129 5.03276 0.851662)
(0.928254 5.03276 0.849344)
(0.930374 5.03276 0.847022)
(0.932488 5.03276 0.844694)
(0.934596 5.03276 0.842361)
(0.936699 5.03276 0.840022)
(0.938795 5.03276 0.837678)
(0.940886 5.03276 0.83533)
(0.942971 5.03276 0.832975)
(0.94505 5.03276 0.830616)
(0.947123 5.03276 0.828251)
(0.94919 5.03276 0.825882)
(0.951251 5.03276 0.823507)
(0.953306 5.03276 0.821127)
(0.955355 5.03276 0.818742)
(0.957398 5.03276 0.816352)
(0.959436 5.03276 0.813956)
(0.961467 5.03276 0.811556)
(0.963492 5.03276 0.80915)
(0.965512 5.03276 0.80674)
(0.967525 5.03276 0.804324)
(0.969532 5.03276 0.801903)
(0.971533 5.03276 0.799478)
(0.973528 5.03276 0.797047)
(0.975517 5.03276 0.794612)
(0.9775 5.03276 0.792171)
(0.979477 5.03276 0.789725)
(0.981448 5.03276 0.787275)
(0.983412 5.03276 0.78482)
(0.985371 5.03276 0.782359)
(0.987323 5.03276 0.779894)
(0.989269 5.03276 0.777424)
(0.991209 5.03276 0.774949)
(0.993143 5.03276 0.77247)
(0.99507 5.03276 0.769985)
(0.996992 5.03276 0.767496)
(0.998906 5.03276 0.765002)
(1.00082 5.03276 0.762503)
(1.00272 5.03276 0.759999)
(1.00461 5.03276 0.757491)
(1.0065 5.03276 0.754977)
(1.00839 5.03276 0.75246)
(1.01027 5.03276 0.749937)
(1.01214 5.03276 0.74741)
(1.014 5.03276 0.744878)
(1.01586 5.03276 0.742341)
(1.01771 5.03276 0.7398)
(1.01956 5.03276 0.737254)
(1.0214 5.03276 0.734703)
(1.02323 5.03276 0.732149)
(1.02506 5.03276 0.729589)
(1.02688 5.03276 0.727025)
(1.02869 5.03276 0.724456)
(1.0305 5.03276 0.721883)
(1.0323 5.03276 0.719305)
(1.03409 5.03276 0.716723)
(1.03588 5.03276 0.714136)
(1.03766 5.03276 0.711545)
(1.03944 5.03276 0.708949)
(1.04121 5.03276 0.706349)
(1.04297 5.03276 0.703745)
(1.04472 5.03276 0.701136)
(1.04647 5.03276 0.698523)
(1.04822 5.03276 0.695905)
(1.04995 5.03276 0.693283)
(1.05168 5.03276 0.690657)
(1.05341 5.03276 0.688026)
(1.05512 5.03276 0.685391)
(1.05683 5.03276 0.682752)
(1.05853 5.03276 0.680108)
(1.06023 5.03276 0.677461)
(1.06192 5.03276 0.674809)
(1.0636 5.03276 0.672153)
(1.06528 5.03276 0.669492)
(1.06695 5.03276 0.666828)
(1.06861 5.03276 0.664159)
(1.07027 5.03276 0.661486)
(1.07192 5.03276 0.658809)
(1.07356 5.03276 0.656128)
(1.0752 5.03276 0.653443)
(1.07683 5.03276 0.650754)
(1.07845 5.03276 0.648061)
(1.08007 5.03276 0.645363)
(1.08168 5.03276 0.642662)
(1.08328 5.03276 0.639956)
(1.08488 5.03276 0.637247)
(1.08647 5.03276 0.634534)
(1.08805 5.03276 0.631816)
(1.08962 5.03276 0.629095)
(1.09119 5.03276 0.62637)
(1.09275 5.03276 0.62364)
(1.09431 5.03276 0.620907)
(1.09586 5.03276 0.618171)
(1.0974 5.03276 0.61543)
(1.09894 5.03276 0.612685)
(1.10046 5.03276 0.609937)
(1.10198 5.03276 0.607184)
(1.1035 5.03276 0.604428)
(1.10501 5.03276 0.601669)
(1.10651 5.03276 0.598905)
(1.108 5.03276 0.596138)
(1.10949 5.03276 0.593367)
(1.11097 5.03276 0.590592)
(1.11244 5.03276 0.587813)
(1.1139 5.03276 0.585031)
(1.11536 5.03276 0.582246)
(1.11681 5.03276 0.579456)
(1.11826 5.03276 0.576663)
(1.1197 5.03276 0.573866)
(1.12113 5.03276 0.571066)
(1.12255 5.03276 0.568262)
(1.12397 5.03276 0.565455)
(1.12538 5.03276 0.562644)
(1.12678 5.03276 0.55983)
(1.12818 5.03276 0.557012)
(1.12956 5.03276 0.554191)
(1.13094 5.03276 0.551366)
(1.13232 5.03276 0.548537)
(1.13369 5.03276 0.545706)
(1.13505 5.03276 0.542871)
(1.1364 5.03276 0.540032)
(1.13775 5.03276 0.53719)
(1.13909 5.03276 0.534345)
(1.14042 5.03276 0.531497)
(1.14174 5.03276 0.528645)
(1.14306 5.03276 0.525789)
(1.14437 5.03276 0.522931)
(1.14567 5.03276 0.520069)
(1.14697 5.03276 0.517204)
(1.14826 5.03276 0.514336)
(1.14954 5.03276 0.511465)
(1.15082 5.03276 0.50859)
(1.15208 5.03276 0.505712)
(1.15334 5.03276 0.502831)
(1.1546 5.03276 0.499947)
(1.15584 5.03276 0.49706)
(1.15708 5.03276 0.49417)
(1.15831 5.03276 0.491276)
(1.15954 5.03276 0.48838)
(1.16075 5.03276 0.48548)
(1.16196 5.03276 0.482578)
(1.16317 5.03276 0.479672)
(1.16436 5.03276 0.476763)
(1.16555 5.03276 0.473852)
(1.16673 5.03276 0.470937)
(1.1679 5.03276 0.46802)
(1.16907 5.03276 0.4651)
(1.17023 5.03276 0.462176)
(1.17138 5.03276 0.45925)
(1.17252 5.03276 0.456321)
(1.17366 5.03276 0.453389)
(1.17479 5.03276 0.450455)
(1.17591 5.03276 0.447517)
(1.17703 5.03276 0.444577)
(1.17814 5.03276 0.441634)
(1.17923 5.03276 0.438688)
(1.18033 5.03276 0.435739)
(1.18141 5.03276 0.432788)
(1.18249 5.03276 0.429834)
(1.18356 5.03276 0.426877)
(1.18463 5.03276 0.423918)
(1.18568 5.03276 0.420956)
(1.18673 5.03276 0.417991)
(1.18777 5.03276 0.415024)
(1.1888 5.03276 0.412054)
(1.18983 5.03276 0.409081)
(1.19085 5.03276 0.406106)
(1.19186 5.03276 0.403129)
(1.19286 5.03276 0.400149)
(1.19386 5.03276 0.397166)
(1.19485 5.03276 0.394181)
(1.19583 5.03276 0.391194)
(1.1968 5.03276 0.388204)
(1.19777 5.03276 0.385211)
(1.19873 5.03276 0.382217)
(1.19968 5.03276 0.37922)
(1.20062 5.03276 0.37622)
(1.20156 5.03276 0.373218)
(1.20249 5.03276 0.370214)
(1.20341 5.03276 0.367207)
(1.20433 5.03276 0.364199)
(1.20523 5.03276 0.361188)
(1.20613 5.03276 0.358174)
(1.20702 5.03276 0.355159)
(1.20791 5.03276 0.352141)
(1.20878 5.03276 0.349121)
(1.20965 5.03276 0.346099)
(1.21051 5.03276 0.343074)
(1.21137 5.03276 0.340048)
(1.21221 5.03276 0.337019)
(1.21305 5.03276 0.333989)
(1.21388 5.03276 0.330956)
(1.21471 5.03276 0.327921)
(1.21552 5.03276 0.324884)
(1.21633 5.03276 0.321845)
(1.21713 5.03276 0.318804)
(1.21792 5.03276 0.315761)
(1.21871 5.03276 0.312716)
(1.21949 5.03276 0.309669)
(1.22026 5.03276 0.306621)
(1.22102 5.03276 0.30357)
(1.22177 5.03276 0.300517)
(1.22252 5.03276 0.297463)
(1.22326 5.03276 0.294407)
(1.22399 5.03276 0.291348)
(1.22472 5.03276 0.288288)
(1.22543 5.03276 0.285226)
(1.22614 5.03276 0.282163)
(1.22684 5.03276 0.279098)
(1.22754 5.03276 0.276031)
(1.22822 5.03276 0.272962)
(1.2289 5.03276 0.269891)
(1.22957 5.03276 0.266819)
(1.23024 5.03276 0.263745)
(1.23089 5.03276 0.26067)
(1.23154 5.03276 0.257592)
(1.23218 5.03276 0.254514)
(1.23281 5.03276 0.251433)
(1.23344 5.03276 0.248351)
(1.23405 5.03276 0.245268)
(1.23466 5.03276 0.242183)
(1.23526 5.03276 0.239096)
(1.23586 5.03276 0.236008)
(1.23644 5.03276 0.232919)
(1.23702 5.03276 0.229828)
(1.23759 5.03276 0.226736)
(1.23815 5.03276 0.223642)
(1.23871 5.03276 0.220547)
(1.23926 5.03276 0.21745)
(1.2398 5.03276 0.214352)
(1.24033 5.03276 0.211253)
(1.24085 5.03276 0.208152)
(1.24137 5.03276 0.20505)
(1.24188 5.03276 0.201947)
(1.24238 5.03276 0.198843)
(1.24287 5.03276 0.195737)
(1.24336 5.03276 0.19263)
(1.24383 5.03276 0.189522)
(1.2443 5.03276 0.186413)
(1.24477 5.03276 0.183302)
(1.24522 5.03276 0.180191)
(1.24567 5.03276 0.177078)
(1.2461 5.03276 0.173964)
(1.24654 5.03276 0.170849)
(1.24696 5.03276 0.167733)
(1.24738 5.03276 0.164616)
(1.24778 5.03276 0.161498)
(1.24818 5.03276 0.158379)
(1.24857 5.03276 0.155259)
(1.24896 5.03276 0.152138)
(1.24933 5.03276 0.149016)
(1.2497 5.03276 0.145893)
(1.25006 5.03276 0.14277)
(1.25042 5.03276 0.139645)
(1.25076 5.03276 0.136519)
(1.2511 5.03276 0.133393)
(1.25143 5.03276 0.130266)
(1.25175 5.03276 0.127138)
(1.25206 5.03276 0.124009)
(1.25237 5.03276 0.120879)
(1.25267 5.03276 0.117749)
(1.25296 5.03276 0.114618)
(1.25324 5.03276 0.111486)
(1.25352 5.03276 0.108353)
(1.25378 5.03276 0.10522)
(1.25404 5.03276 0.102086)
(1.25429 5.03276 0.0989515)
(1.25454 5.03276 0.0958164)
(1.25477 5.03276 0.0926807)
(1.255 5.03276 0.0895444)
(1.25522 5.03276 0.0864075)
(1.25543 5.03276 0.0832701)
(1.25564 5.03276 0.0801322)
(1.25583 5.03276 0.0769937)
(1.25602 5.03276 0.0738548)
(1.2562 5.03276 0.0707155)
(1.25637 5.03276 0.0675756)
(1.25654 5.03276 0.0644354)
(1.2567 5.03276 0.0612948)
(1.25684 5.03276 0.0581537)
(1.25699 5.03276 0.0550124)
(1.25712 5.03276 0.0518706)
(1.25725 5.03276 0.0487286)
(1.25736 5.03276 0.0455862)
(1.25747 5.03276 0.0424436)
(1.25758 5.03276 0.0393007)
(1.25767 5.03276 0.0361575)
(1.25776 5.03276 0.0330142)
(1.25784 5.03276 0.0298706)
(1.25791 5.03276 0.0267268)
(1.25797 5.03276 0.0235829)
(1.25802 5.03276 0.0204388)
(1.25807 5.03276 0.0172946)
(1.25811 5.03276 0.0141502)
(1.25814 5.03276 0.0110058)
(1.25817 5.03276 0.00786136)
(1.25818 5.03276 0.00471684)
(1.25819 5.03276 0.00157228)
(1.25819 5.03276 -0.00157228)
(1.25818 5.03276 -0.00471684)
(1.25817 5.03276 -0.00786136)
(1.25814 5.03276 -0.0110058)
(1.25811 5.03276 -0.0141502)
(1.25807 5.03276 -0.0172946)
(1.25802 5.03276 -0.0204388)
(1.25797 5.03276 -0.0235829)
(1.25791 5.03276 -0.0267268)
(1.25784 5.03276 -0.0298706)
(1.25776 5.03276 -0.0330142)
(1.25767 5.03276 -0.0361575)
(1.25758 5.03276 -0.0393007)
(1.25747 5.03276 -0.0424436)
(1.25736 5.03276 -0.0455862)
(1.25725 5.03276 -0.0487286)
(1.25712 5.03276 -0.0518706)
(1.25699 5.03276 -0.0550124)
(1.25684 5.03276 -0.0581537)
(1.2567 5.03276 -0.0612948)
(1.25654 5.03276 -0.0644354)
(1.25637 5.03276 -0.0675756)
(1.2562 5.03276 -0.0707155)
(1.25602 5.03276 -0.0738548)
(1.25583 5.03276 -0.0769937)
(1.25564 5.03276 -0.0801322)
(1.25543 5.03276 -0.0832701)
(1.25522 5.03276 -0.0864075)
(1.255 5.03276 -0.0895444)
(1.25477 5.03276 -0.0926807)
(1.25454 5.03276 -0.0958164)
(1.25429 5.03276 -0.0989515)
(1.25404 5.03276 -0.102086)
(1.25378 5.03276 -0.10522)
(1.25352 5.03276 -0.108353)
(1.25324 5.03276 -0.111486)
(1.25296 5.03276 -0.114618)
(1.25267 5.03276 -0.117749)
(1.25237 5.03276 -0.120879)
(1.25206 5.03276 -0.124009)
(1.25175 5.03276 -0.127138)
(1.25143 5.03276 -0.130266)
(1.2511 5.03276 -0.133393)
(1.25076 5.03276 -0.136519)
(1.25042 5.03276 -0.139645)
(1.25006 5.03276 -0.14277)
(1.2497 5.03276 -0.145893)
(1.24933 5.03276 -0.149016)
(1.24896 5.03276 -0.152138)
(1.24857 5.03276 -0.155259)
(1.24818 5.03276 -0.158379)
(1.24778 5.03276 -0.161498)
(1.24738 5.03276 -0.164616)
(1.24696 5.03276 -0.167733)
(1.24654 5.03276 -0.170849)
(1.2461 5.03276 -0.173964)
(1.24567 5.03276 -0.177078)
(1.24522 5.03276 -0.180191)
(1.24477 5.03276 -0.183302)
(1.2443 5.03276 -0.186413)
(1.24383 5.03276 -0.189522)
(1.24336 5.03276 -0.19263)
(1.24287 5.03276 -0.195737)
(1.24238 5.03276 -0.198843)
(1.24188 5.03276 -0.201947)
(1.24137 5.03276 -0.20505)
(1.24085 5.03276 -0.208152)
(1.24033 5.03276 -0.211253)
(1.2398 5.03276 -0.214352)
(1.23926 5.03276 -0.21745)
(1.23871 5.03276 -0.220547)
(1.23815 5.03276 -0.223642)
(1.23759 5.03276 -0.226736)
(1.23702 5.03276 -0.229828)
(1.23644 5.03276 -0.232919)
(1.23586 5.03276 -0.236008)
(1.23526 5.03276 -0.239096)
(1.23466 5.03276 -0.242183)
(1.23405 5.03276 -0.245268)
(1.23344 5.03276 -0.248351)
(1.23281 5.03276 -0.251433)
(1.23218 5.03276 -0.254514)
(1.23154 5.03276 -0.257592)
(1.23089 5.03276 -0.26067)
(1.23024 5.03276 -0.263745)
(1.22957 5.03276 -0.266819)
(1.2289 5.03276 -0.269891)
(1.22822 5.03276 -0.272962)
(1.22754 5.03276 -0.276031)
(1.22684 5.03276 -0.279098)
(1.22614 5.03276 -0.282163)
(1.22543 5.03276 -0.285226)
(1.22472 5.03276 -0.288288)
(1.22399 5.03276 -0.291348)
(1.22326 5.03276 -0.294407)
(1.22252 5.03276 -0.297463)
(1.22177 5.03276 -0.300517)
(1.22102 5.03276 -0.30357)
(1.22026 5.03276 -0.306621)
(1.21949 5.03276 -0.309669)
(1.21871 5.03276 -0.312716)
(1.21792 5.03276 -0.315761)
(1.21713 5.03276 -0.318804)
(1.21633 5.03276 -0.321845)
(1.21552 5.03276 -0.324884)
(1.21471 5.03276 -0.327921)
(1.21388 5.03276 -0.330956)
(1.21305 5.03276 -0.333989)
(1.21221 5.03276 -0.337019)
(1.21137 5.03276 -0.340048)
(1.21051 5.03276 -0.343074)
(1.20965 5.03276 -0.346099)
(1.20878 5.03276 -0.349121)
(1.20791 5.03276 -0.352141)
(1.20702 5.03276 -0.355159)
(1.20613 5.03276 -0.358174)
(1.20523 5.03276 -0.361188)
(1.20433 5.03276 -0.364199)
(1.20341 5.03276 -0.367207)
(1.20249 5.03276 -0.370214)
(1.20156 5.03276 -0.373218)
(1.20062 5.03276 -0.37622)
(1.19968 5.03276 -0.37922)
(1.19873 5.03276 -0.382217)
(1.19777 5.03276 -0.385211)
(1.1968 5.03276 -0.388204)
(1.19583 5.03276 -0.391194)
(1.19485 5.03276 -0.394181)
(1.19386 5.03276 -0.397166)
(1.19286 5.03276 -0.400149)
(1.19186 5.03276 -0.403129)
(1.19085 5.03276 -0.406106)
(1.18983 5.03276 -0.409081)
(1.1888 5.03276 -0.412054)
(1.18777 5.03276 -0.415024)
(1.18673 5.03276 -0.417991)
(1.18568 5.03276 -0.420956)
(1.18463 5.03276 -0.423918)
(1.18356 5.03276 -0.426877)
(1.18249 5.03276 -0.429834)
(1.18141 5.03276 -0.432788)
(1.18033 5.03276 -0.435739)
(1.17923 5.03276 -0.438688)
(1.17814 5.03276 -0.441634)
(1.17703 5.03276 -0.444577)
(1.17591 5.03276 -0.447517)
(1.17479 5.03276 -0.450455)
(1.17366 5.03276 -0.453389)
(1.17252 5.03276 -0.456321)
(1.17138 5.03276 -0.45925)
(1.17023 5.03276 -0.462176)
(1.16907 5.03276 -0.4651)
(1.1679 5.03276 -0.46802)
(1.16673 5.03276 -0.470937)
(1.16555 5.03276 -0.473852)
(1.16436 5.03276 -0.476763)
(1.16317 5.03276 -0.479672)
(1.16196 5.03276 -0.482578)
(1.16075 5.03276 -0.48548)
(1.15954 5.03276 -0.48838)
(1.15831 5.03276 -0.491276)
(1.15708 5.03276 -0.49417)
(1.15584 5.03276 -0.49706)
(1.1546 5.03276 -0.499947)
(1.15334 5.03276 -0.502831)
(1.15208 5.03276 -0.505712)
(1.15082 5.03276 -0.50859)
(1.14954 5.03276 -0.511465)
(1.14826 5.03276 -0.514336)
(1.14697 5.03276 -0.517204)
(1.14567 5.03276 -0.520069)
(1.14437 5.03276 -0.522931)
(1.14306 5.03276 -0.525789)
(1.14174 5.03276 -0.528645)
(1.14042 5.03276 -0.531497)
(1.13909 5.03276 -0.534345)
(1.13775 5.03276 -0.53719)
(1.1364 5.03276 -0.540032)
(1.13505 5.03276 -0.542871)
(1.13369 5.03276 -0.545706)
(1.13232 5.03276 -0.548537)
(1.13094 5.03276 -0.551366)
(1.12956 5.03276 -0.554191)
(1.12818 5.03276 -0.557012)
(1.12678 5.03276 -0.55983)
(1.12538 5.03276 -0.562644)
(1.12397 5.03276 -0.565455)
(1.12255 5.03276 -0.568262)
(1.12113 5.03276 -0.571066)
(1.1197 5.03276 -0.573866)
(1.11826 5.03276 -0.576663)
(1.11681 5.03276 -0.579456)
(1.11536 5.03276 -0.582246)
(1.1139 5.03276 -0.585031)
(1.11244 5.03276 -0.587813)
(1.11097 5.03276 -0.590592)
(1.10949 5.03276 -0.593367)
(1.108 5.03276 -0.596138)
(1.10651 5.03276 -0.598905)
(1.10501 5.03276 -0.601669)
(1.1035 5.03276 -0.604428)
(1.10198 5.03276 -0.607184)
(1.10046 5.03276 -0.609937)
(1.09894 5.03276 -0.612685)
(1.0974 5.03276 -0.61543)
(1.09586 5.03276 -0.618171)
(1.09431 5.03276 -0.620907)
(1.09275 5.03276 -0.62364)
(1.09119 5.03276 -0.62637)
(1.08962 5.03276 -0.629095)
(1.08805 5.03276 -0.631816)
(1.08647 5.03276 -0.634534)
(1.08488 5.03276 -0.637247)
(1.08328 5.03276 -0.639956)
(1.08168 5.03276 -0.642662)
(1.08007 5.03276 -0.645363)
(1.07845 5.03276 -0.648061)
(1.07683 5.03276 -0.650754)
(1.0752 5.03276 -0.653443)
(1.07356 5.03276 -0.656128)
(1.07192 5.03276 -0.658809)
(1.07027 5.03276 -0.661486)
(1.06861 5.03276 -0.664159)
(1.06695 5.03276 -0.666828)
(1.06528 5.03276 -0.669492)
(1.0636 5.03276 -0.672153)
(1.06192 5.03276 -0.674809)
(1.06023 5.03276 -0.677461)
(1.05853 5.03276 -0.680108)
(1.05683 5.03276 -0.682752)
(1.05512 5.03276 -0.685391)
(1.05341 5.03276 -0.688026)
(1.05168 5.03276 -0.690657)
(1.04995 5.03276 -0.693283)
(1.04822 5.03276 -0.695905)
(1.04647 5.03276 -0.698523)
(1.04472 5.03276 -0.701136)
(1.04297 5.03276 -0.703745)
(1.04121 5.03276 -0.706349)
(1.03944 5.03276 -0.708949)
(1.03766 5.03276 -0.711545)
(1.03588 5.03276 -0.714136)
(1.03409 5.03276 -0.716723)
(1.0323 5.03276 -0.719305)
(1.0305 5.03276 -0.721883)
(1.02869 5.03276 -0.724456)
(1.02688 5.03276 -0.727025)
(1.02506 5.03276 -0.729589)
(1.02323 5.03276 -0.732149)
(1.0214 5.03276 -0.734703)
(1.01956 5.03276 -0.737254)
(1.01771 5.03276 -0.7398)
(1.01586 5.03276 -0.742341)
(1.014 5.03276 -0.744878)
(1.01214 5.03276 -0.74741)
(1.01027 5.03276 -0.749937)
(1.00839 5.03276 -0.75246)
(1.0065 5.03276 -0.754977)
(1.00461 5.03276 -0.757491)
(1.00272 5.03276 -0.759999)
(1.00082 5.03276 -0.762503)
(0.998906 5.03276 -0.765002)
(0.996992 5.03276 -0.767496)
(0.99507 5.03276 -0.769985)
(0.993143 5.03276 -0.77247)
(0.991209 5.03276 -0.774949)
(0.989269 5.03276 -0.777424)
(0.987323 5.03276 -0.779894)
(0.985371 5.03276 -0.782359)
(0.983412 5.03276 -0.78482)
(0.981448 5.03276 -0.787275)
(0.979477 5.03276 -0.789725)
(0.9775 5.03276 -0.792171)
(0.975517 5.03276 -0.794612)
(0.973528 5.03276 -0.797047)
(0.971533 5.03276 -0.799478)
(0.969532 5.03276 -0.801903)
(0.967525 5.03276 -0.804324)
(0.965512 5.03276 -0.80674)
(0.963492 5.03276 -0.80915)
(0.961467 5.03276 -0.811556)
(0.959436 5.03276 -0.813956)
(0.957398 5.03276 -0.816352)
(0.955355 5.03276 -0.818742)
(0.953306 5.03276 -0.821127)
(0.951251 5.03276 -0.823507)
(0.94919 5.03276 -0.825882)
(0.947123 5.03276 -0.828251)
(0.94505 5.03276 -0.830616)
(0.942971 5.03276 -0.832975)
(0.940886 5.03276 -0.83533)
(0.938795 5.03276 -0.837678)
(0.936699 5.03276 -0.840022)
(0.934596 5.03276 -0.842361)
(0.932488 5.03276 -0.844694)
(0.930374 5.03276 -0.847022)
(0.928254 5.03276 -0.849344)
(0.926129 5.03276 -0.851662)
(0.923997 5.03276 -0.853974)
(0.92186 5.03276 -0.85628)
(0.919717 5.03276 -0.858582)
(0.917568 5.03276 -0.860878)
(0.915414 5.03276 -0.863168)
(0.913254 5.03276 -0.865453)
(0.911088 5.03276 -0.867733)
(0.908916 5.03276 -0.870007)
(0.906739 5.03276 -0.872276)
(0.904556 5.03276 -0.87454)
(0.902368 5.03276 -0.876798)
(0.900173 5.03276 -0.87905)
(0.897974 5.03276 -0.881297)
(0.895768 5.03276 -0.883539)
(0.893557 5.03276 -0.885775)
(0.891341 5.03276 -0.888005)
(0.889118 5.03276 -0.89023)
(0.886891 5.03276 -0.89245)
(0.884658 5.03276 -0.894664)
(0.882419 5.03276 -0.896872)
(0.880175 5.03276 -0.899074)
(0.877925 5.03276 -0.901271)
(0.875669 5.03276 -0.903463)
(0.873409 5.03276 -0.905648)
(0.871143 5.03276 -0.907828)
(0.868871 5.03276 -0.910003)
(0.866594 5.03276 -0.912171)
(0.864311 5.03276 -0.914334)
(0.862023 5.03276 -0.916492)
(0.85973 5.03276 -0.918643)
(0.857432 5.03276 -0.920789)
(0.855128 5.03276 -0.922929)
(0.852818 5.03276 -0.925064)
(0.850504 5.03276 -0.927192)
(0.848184 5.03276 -0.929315)
(0.845858 5.03276 -0.931432)
(0.843528 5.03276 -0.933543)
(0.841192 5.03276 -0.935648)
(0.838851 5.03276 -0.937748)
(0.836505 5.03276 -0.939841)
(0.834153 5.03276 -0.941929)
(0.831796 5.03276 -0.944011)
(0.829434 5.03276 -0.946087)
(0.827067 5.03276 -0.948157)
(0.824695 5.03276 -0.950221)
(0.822318 5.03276 -0.952279)
(0.819935 5.03276 -0.954331)
(0.817547 5.03276 -0.956378)
(0.815154 5.03276 -0.958418)
(0.812757 5.03276 -0.960452)
(0.810354 5.03276 -0.96248)
(0.807946 5.03276 -0.964503)
(0.805533 5.03276 -0.966519)
(0.803114 5.03276 -0.968529)
(0.800691 5.03276 -0.970533)
(0.798263 5.03276 -0.972532)
(0.79583 5.03276 -0.974524)
(0.793392 5.03276 -0.97651)
(0.790949 5.03276 -0.978489)
(0.788501 5.03276 -0.980463)
(0.786048 5.03276 -0.982431)
(0.78359 5.03276 -0.984392)
(0.781128 5.03276 -0.986348)
(0.77866 5.03276 -0.988297)
(0.776187 5.03276 -0.99024)
(0.77371 5.03276 -0.992177)
(0.771228 5.03276 -0.994107)
(0.768741 5.03276 -0.996032)
(0.766249 5.03276 -0.99795)
(0.763753 5.03276 -0.999862)
(0.761251 5.03276 -1.00177)
(0.758745 5.03276 -1.00367)
(0.756235 5.03276 -1.00556)
(0.753719 5.03276 -1.00745)
(0.751199 5.03276 -1.00933)
(0.748674 5.03276 -1.0112)
(0.746144 5.03276 -1.01307)
(0.74361 5.03276 -1.01493)
(0.741071 5.03276 -1.01679)
(0.738527 5.03276 -1.01864)
(0.735979 5.03276 -1.02048)
(0.733427 5.03276 -1.02232)
(0.730869 5.03276 -1.02414)
(0.728307 5.03276 -1.02597)
(0.725741 5.03276 -1.02778)
(0.72317 5.03276 -1.0296)
(0.720594 5.03276 -1.0314)
(0.718014 5.03276 -1.0332)
(0.71543 5.03276 -1.03499)
(0.712841 5.03276 -1.03677)
(0.710248 5.03276 -1.03855)
(0.70765 5.03276 -1.04032)
(0.705047 5.03276 -1.04209)
(0.702441 5.03276 -1.04385)
(0.69983 5.03276 -1.0456)
(0.697214 5.03276 -1.04735)
(0.694595 5.03276 -1.04909)
(0.69197 5.03276 -1.05082)
(0.689342 5.03276 -1.05254)
(0.686709 5.03276 -1.05426)
(0.684072 5.03276 -1.05598)
(0.681431 5.03276 -1.05768)
(0.678785 5.03276 -1.05938)
(0.676135 5.03276 -1.06108)
(0.673481 5.03276 -1.06276)
(0.670823 5.03276 -1.06444)
(0.668161 5.03276 -1.06612)
(0.665494 5.03276 -1.06778)
(0.662823 5.03276 -1.06944)
(0.660148 5.03276 -1.0711)
(0.657469 5.03276 -1.07274)
(0.654786 5.03276 -1.07438)
(0.652099 5.03276 -1.07601)
(0.649408 5.03276 -1.07764)
(0.646712 5.03276 -1.07926)
(0.644013 5.03276 -1.08087)
(0.64131 5.03276 -1.08248)
(0.638602 5.03276 -1.08408)
(0.635891 5.03276 -1.08567)
(0.633175 5.03276 -1.08726)
(0.630456 5.03276 -1.08884)
(0.627733 5.03276 -1.09041)
(0.625006 5.03276 -1.09197)
(0.622275 5.03276 -1.09353)