/*--------------------------------*- C++ -*----------------------------------*\
  =========                 |
  \\      /  F ield         | OpenFOAM: The Open Source CFD Toolbox
   \\    /   O peration     | Website:  https://openfoam.org
    \\  /    A nd           | Version:  10
     \\/     M anipulation  |
\*---------------------------------------------------------------------------*/
FoamFile
{
    format      ascii;
    class       featureEdgeMesh;
    location    "constant/triSurface";
    object      pitched_blades.eMesh;
}
// * * * * * * * * * * * * * * * * * * * * * * * * * * * * * * * * * * * * * //


// points:

3271
(
(0.0529668 1.12899 -0.0458882)
(0.14016 1.05912 -0.115764)
(0.14016 1.05224 -0.108881)
(0.0563254 1.11942 -0.0416972)
(0.0563254 1.21658 0.0416972)
(0.14016 1.28376 0.108881)
(0.14016 1.27688 0.115764)
(0.0529668 1.20701 0.0458882)
(-0.0662237 1.12899 -0.0229265)
(-0.170334 1.05912 -0.0635002)
(-0.164374 1.05224 -0.0669415)
(-0.0642735 1.11942 -0.0279306)
(0.00794816 1.21658 -0.0696278)
(0.0242139 1.28376 -0.175823)
(0.0301744 1.27688 -0.179264)
(0.0132569 1.20701 -0.0688147)
(0.0132569 1.12899 0.0688147)
(0.0301744 1.05912 0.179264)
(0.0242139 1.05224 0.175823)
(0.00794816 1.11942 0.0696278)
(-0.0642735 1.21658 0.0279306)
(-0.164374 1.28376 0.0669415)
(-0.170334 1.27688 0.0635002)
(-0.0662237 1.20701 0.0229265)
(0.053925 1.12823 -0.046656)
(0.0534003 1.12779 -0.045383)
(0.0548831 1.12746 -0.0474239)
(0.0558413 1.12669 -0.0481918)
(0.0567995 1.12592 -0.0489596)
(0.0577576 1.12515 -0.0497275)
(0.0587158 1.12439 -0.0504954)
(0.059674 1.12362 -0.0512632)
(0.0606321 1.12285 -0.0520311)
(0.0615903 1.12208 -0.052799)
(0.0625485 1.12132 -0.0535668)
(0.0635066 1.12055 -0.0543347)
(0.0644648 1.11978 -0.0551025)
(0.065423 1.11901 -0.0558704)
(0.0663811 1.11824 -0.0566383)
(0.0673393 1.11748 -0.0574061)
(0.0682975 1.11671 -0.058174)
(0.0692556 1.11594 -0.0589419)
(0.0702138 1.11517 -0.0597097)
(0.071172 1.11441 -0.0604776)
(0.0721301 1.11364 -0.0612454)
(0.0730883 1.11287 -0.0620133)
(0.0740465 1.1121 -0.0627812)
(0.0750046 1.11133 -0.063549)
(0.0759628 1.11057 -0.0643169)
(0.076921 1.1098 -0.0650848)
(0.0778791 1.10903 -0.0658526)
(0.0788373 1.10826 -0.0666205)
(0.0797955 1.10749 -0.0673884)
(0.0807536 1.10673 -0.0681562)
(0.0817118 1.10596 -0.0689241)
(0.08267 1.10519 -0.0696919)
(0.0836281 1.10442 -0.0704598)
(0.0845863 1.10365 -0.0712277)
(0.0855445 1.10289 -0.0719955)
(0.0865026 1.10212 -0.0727634)
(0.0874608 1.10135 -0.0735313)
(0.088419 1.10058 -0.0742991)
(0.0893771 1.09982 -0.075067)
(0.0903353 1.09905 -0.0758349)
(0.0912935 1.09828 -0.0766027)
(0.0922516 1.09751 -0.0773706)
(0.0932098 1.09674 -0.0781384)
(0.094168 1.09598 -0.0789063)
(0.0951261 1.09521 -0.0796742)
(0.0960843 1.09444 -0.080442)
(0.0970425 1.09367 -0.0812099)
(0.0980007 1.09291 -0.0819778)
(0.0989588 1.09214 -0.0827456)
(0.099917 1.09137 -0.0835135)
(0.100875 1.0906 -0.0842813)
(0.101833 1.08983 -0.0850492)
(0.102792 1.08906 -0.0858171)
(0.10375 1.0883 -0.0865849)
(0.104708 1.08753 -0.0873528)
(0.105666 1.08676 -0.0881207)
(0.106624 1.08599 -0.0888885)
(0.107582 1.08523 -0.0896564)
(0.10854 1.08446 -0.0904243)
(0.109499 1.08369 -0.0911921)
(0.110457 1.08292 -0.09196)
(0.111415 1.08215 -0.0927278)
(0.112373 1.08139 -0.0934957)
(0.113331 1.08062 -0.0942636)
(0.114289 1.07985 -0.0950314)
(0.115248 1.07908 -0.0957993)
(0.116206 1.07832 -0.0965672)
(0.117164 1.07755 -0.097335)
(0.118122 1.07678 -0.0981029)
(0.11908 1.07601 -0.0988708)
(0.120039 1.07524 -0.0996386)
(0.120997 1.07448 -0.100406)
(0.121955 1.07371 -0.101174)
(0.122913 1.07294 -0.101942)
(0.123871 1.07217 -0.10271)
(0.124829 1.07141 -0.103478)
(0.125787 1.07064 -0.104246)
(0.126746 1.06987 -0.105014)
(0.127704 1.0691 -0.105782)
(0.128662 1.06833 -0.106549)
(0.12962 1.06756 -0.107317)
(0.130578 1.0668 -0.108085)
(0.131536 1.06603 -0.108853)
(0.132495 1.06526 -0.109621)
(0.133453 1.06449 -0.110389)
(0.134411 1.06373 -0.111157)
(0.135369 1.06296 -0.111924)
(0.136327 1.06219 -0.112692)
(0.137286 1.06142 -0.11346)
(0.138244 1.06065 -0.114228)
(0.139202 1.05989 -0.114996)
(0.14016 1.05814 -0.114781)
(0.14016 1.05715 -0.113797)
(0.14016 1.05617 -0.112814)
(0.14016 1.05519 -0.111831)
(0.14016 1.0542 -0.110848)
(0.14016 1.05322 -0.109865)
(0.139196 1.05301 -0.108109)
(0.138233 1.05378 -0.107337)
(0.137269 1.05455 -0.106565)
(0.136305 1.05533 -0.105792)
(0.135342 1.0561 -0.10502)
(0.134378 1.05687 -0.104248)
(0.133415 1.05764 -0.103476)
(0.132451 1.05841 -0.102703)
(0.131488 1.05919 -0.101931)
(0.130524 1.05996 -0.101159)
(0.12956 1.06073 -0.100387)
(0.128597 1.0615 -0.0996145)
(0.127633 1.06228 -0.0988422)
(0.126669 1.06305 -0.09807)
(0.125706 1.06382 -0.0972978)
(0.124742 1.06459 -0.0965256)
(0.123778 1.06536 -0.0957533)
(0.122815 1.06614 -0.0949811)
(0.121851 1.06691 -0.0942089)
(0.120888 1.06768 -0.0934366)
(0.119924 1.06845 -0.0926644)
(0.11896 1.06922 -0.0918922)
(0.117997 1.07 -0.09112)
(0.117033 1.07077 -0.0903477)
(0.11607 1.07154 -0.0895755)
(0.115106 1.07231 -0.0888033)
(0.114142 1.07309 -0.088031)
(0.113179 1.07386 -0.0872588)
(0.112215 1.07463 -0.0864866)
(0.111252 1.0754 -0.0857143)
(0.110288 1.07617 -0.0849421)
(0.109324 1.07695 -0.0841699)
(0.108361 1.07772 -0.0833976)
(0.107397 1.07849 -0.0826254)
(0.106433 1.07926 -0.0818532)
(0.10547 1.08004 -0.081081)
(0.104506 1.08081 -0.0803087)
(0.103543 1.08158 -0.0795365)
(0.102579 1.08235 -0.0787643)
(0.101615 1.08312 -0.077992)
(0.100652 1.0839 -0.0772198)
(0.0996881 1.08467 -0.0764476)
(0.0987245 1.08544 -0.0756753)
(0.0977609 1.08621 -0.0749031)
(0.0967973 1.08699 -0.0741309)
(0.0958337 1.08776 -0.0733586)
(0.09487 1.08853 -0.0725864)
(0.0939064 1.0893 -0.0718142)
(0.0929428 1.09008 -0.071042)
(0.0919792 1.09085 -0.0702697)
(0.0910156 1.09162 -0.0694975)
(0.0900519 1.09239 -0.0687253)
(0.0890883 1.09316 -0.067953)
(0.0881247 1.09394 -0.0671808)
(0.0871611 1.09471 -0.0664086)
(0.0861975 1.09548 -0.0656364)
(0.0852339 1.09625 -0.0648641)
(0.0842702 1.09703 -0.0640919)
(0.0833066 1.0978 -0.0633197)
(0.082343 1.09857 -0.0625474)
(0.0813794 1.09934 -0.0617752)
(0.0804158 1.10011 -0.061003)
(0.0794522 1.10089 -0.0602307)
(0.0784886 1.10166 -0.0594585)
(0.0775249 1.10243 -0.0586863)
(0.0765613 1.1032 -0.057914)
(0.0755977 1.10398 -0.0571418)
(0.0746341 1.10475 -0.0563696)
(0.0736705 1.10552 -0.0555974)
(0.0727069 1.10629 -0.0548251)
(0.0717432 1.10706 -0.0540529)
(0.0707796 1.10784 -0.0532807)
(0.069816 1.10861 -0.0525084)
(0.0688524 1.10938 -0.0517362)
(0.0678888 1.11015 -0.050964)
(0.0669252 1.11093 -0.0501917)
(0.0659615 1.1117 -0.0494195)
(0.0649979 1.11247 -0.0486473)
(0.0640343 1.11324 -0.0478751)
(0.0630707 1.11401 -0.0471028)
(0.0621071 1.11479 -0.0463306)
(0.0611435 1.11556 -0.0455584)
(0.0601798 1.11633 -0.0447861)
(0.0592162 1.1171 -0.0440139)
(0.0582526 1.11788 -0.0432417)
(0.057289 1.11865 -0.0424694)
(0.0559195 1.12061 -0.04224)
(0.0555096 1.12181 -0.0427773)
(0.0550956 1.123 -0.0433091)
(0.0546777 1.1242 -0.0438356)
(0.0542558 1.1254 -0.0443567)
(0.05383 1.1266 -0.0448725)
(0.0537152 1.12987 -0.0450098)
(0.0544454 1.13076 -0.0441238)
(0.0551574 1.13165 -0.0432304)
(0.0558514 1.13255 -0.04233)
(0.0565275 1.13346 -0.0414228)
(0.0571859 1.13437 -0.040509)
(0.0578266 1.13529 -0.0395891)
(0.0584497 1.13622 -0.0386631)
(0.0590555 1.13715 -0.0377313)
(0.059644 1.13809 -0.0367941)
(0.0602153 1.13903 -0.0358515)
(0.0607695 1.13998 -0.0349038)
(0.0613067 1.14093 -0.0339513)
(0.0618271 1.14189 -0.0329941)
(0.0623308 1.14285 -0.0320325)
(0.0628178 1.14382 -0.0310665)
(0.0632883 1.14479 -0.0300965)
(0.0637423 1.14576 -0.0291226)
(0.06418 1.14674 -0.0281449)
(0.0646014 1.14772 -0.0271637)
(0.0650066 1.1487 -0.0261791)
(0.0653958 1.14969 -0.0251912)
(0.0657689 1.15068 -0.0242002)
(0.0661262 1.15168 -0.0232063)
(0.0664676 1.15267 -0.0222097)
(0.0667932 1.15367 -0.0212104)
(0.0671031 1.15467 -0.0202086)
(0.0673973 1.15568 -0.0192044)
(0.067676 1.15668 -0.018198)
(0.0679391 1.15769 -0.0171896)
(0.0681868 1.1587 -0.0161792)
(0.0684191 1.15972 -0.0151669)
(0.068636 1.16073 -0.014153)
(0.0688376 1.16174 -0.0131374)
(0.0690239 1.16276 -0.0121204)
(0.069195 1.16378 -0.0111021)
(0.0693509 1.1648 -0.0100826)
(0.0694916 1.16582 -0.00906194)
(0.0696172 1.16684 -0.00804031)
(0.0697277 1.16787 -0.0070178)
(0.0698232 1.16889 -0.00599454)
(0.0699035 1.16991 -0.00497063)
(0.0699688 1.17094 -0.00394619)
(0.0700191 1.17196 -0.00292132)
(0.0700543 1.17299 -0.00189614)
(0.0700746 1.17401 -0.000870753)
(0.0700798 1.17504 0.000154725)
(0.0700701 1.17606 0.00118019)
(0.0700453 1.17709 0.00220552)
(0.0700055 1.17811 0.00323062)
(0.0699507 1.17914 0.00425537)
(0.0698808 1.18016 0.00527967)
(0.0697959 1.18119 0.00630339)
(0.069696 1.18221 0.00732644)
(0.0695809 1.18323 0.00834869)
(0.0694508 1.18425 0.00937004)
(0.0693055 1.18527 0.0103904)
(0.069145 1.18629 0.0114095)
(0.0689693 1.18731 0.0124275)
(0.0687784 1.18833 0.013444)
(0.0685722 1.18934 0.0144591)
(0.0683506 1.19035 0.0154725)
(0.0681137 1.19137 0.0164843)
(0.0678613 1.19238 0.0174941)
(0.0675935 1.19338 0.018502)
(0.0673102 1.19439 0.0195077)
(0.0670112 1.19539 0.0205111)
(0.0666966 1.1964 0.0215122)
(0.0663662 1.19739 0.0225107)
(0.0660201 1.19839 0.0235066)
(0.065658 1.19938 0.0244996)
(0.0652801 1.20037 0.0254896)
(0.064886 1.20136 0.0264765)
(0.0644759 1.20234 0.0274602)
(0.0640496 1.20332 0.0284403)
(0.063607 1.2043 0.0294169)
(0.063148 1.20527 0.0303897)
(0.0626726 1.20624 0.0313585)
(0.0621806 1.20721 0.0323231)
(0.0616719 1.20817 0.0332834)
(0.0611464 1.20912 0.0342393)
(0.060604 1.21007 0.0351903)
(0.0600447 1.21102 0.0361365)
(0.0594682 1.21196 0.0370775)
(0.0588746 1.2129 0.0380131)
(0.0582636 1.21383 0.0389431)
(0.0576351 1.21475 0.0398673)
(0.0569891 1.21567 0.0407854)
(0.057289 1.21735 0.0424694)
(0.0582526 1.21812 0.0432417)
(0.0592162 1.2189 0.0440139)
(0.0601798 1.21967 0.0447861)
(0.0611435 1.22044 0.0455584)
(0.0621071 1.22121 0.0463306)
(0.0630707 1.22198 0.0471028)
(0.0640343 1.22276 0.0478751)
(0.0649979 1.22353 0.0486473)
(0.0659615 1.2243 0.0494195)
(0.0669252 1.22507 0.0501917)
(0.0678888 1.22585 0.050964)
(0.0688524 1.22662 0.0517362)
(0.069816 1.22739 0.0525084)
(0.0707796 1.22816 0.0532807)
(0.0717432 1.22894 0.0540529)
(0.0727069 1.22971 0.0548251)
(0.0736705 1.23048 0.0555974)
(0.0746341 1.23125 0.0563696)
(0.0755977 1.23202 0.0571418)
(0.0765613 1.2328 0.057914)
(0.0775249 1.23357 0.0586863)
(0.0784886 1.23434 0.0594585)
(0.0794522 1.23511 0.0602307)
(0.0804158 1.23589 0.061003)
(0.0813794 1.23666 0.0617752)
(0.082343 1.23743 0.0625474)
(0.0833066 1.2382 0.0633197)
(0.0842702 1.23897 0.0640919)
(0.0852339 1.23975 0.0648641)
(0.0861975 1.24052 0.0656364)
(0.0871611 1.24129 0.0664086)
(0.0881247 1.24206 0.0671808)
(0.0890883 1.24284 0.067953)
(0.0900519 1.24361 0.0687253)
(0.0910156 1.24438 0.0694975)
(0.0919792 1.24515 0.0702697)
(0.0929428 1.24592 0.071042)
(0.0939064 1.2467 0.0718142)
(0.09487 1.24747 0.0725864)
(0.0958337 1.24824 0.0733586)
(0.0967973 1.24901 0.0741309)
(0.0977609 1.24979 0.0749031)
(0.0987245 1.25056 0.0756753)
(0.0996881 1.25133 0.0764476)
(0.100652 1.2521 0.0772198)
(0.101615 1.25287 0.077992)
(0.102579 1.25365 0.0787643)
(0.103543 1.25442 0.0795365)
(0.104506 1.25519 0.0803087)
(0.10547 1.25596 0.081081)
(0.106433 1.25674 0.0818532)
(0.107397 1.25751 0.0826254)
(0.108361 1.25828 0.0833976)
(0.109324 1.25905 0.0841699)
(0.110288 1.25982 0.0849421)
(0.111252 1.2606 0.0857143)
(0.112215 1.26137 0.0864866)
(0.113179 1.26214 0.0872588)
(0.114142 1.26291 0.088031)
(0.115106 1.26369 0.0888033)
(0.11607 1.26446 0.0895755)
(0.117033 1.26523 0.0903477)
(0.117997 1.266 0.09112)
(0.11896 1.26678 0.0918922)
(0.119924 1.26755 0.0926644)
(0.120888 1.26832 0.0934366)
(0.121851 1.26909 0.0942089)
(0.122815 1.26986 0.0949811)
(0.123778 1.27064 0.0957533)
(0.124742 1.27141 0.0965256)
(0.125706 1.27218 0.0972978)
(0.126669 1.27295 0.09807)
(0.127633 1.27373 0.0988422)
(0.128597 1.2745 0.0996145)
(0.12956 1.27527 0.100387)
(0.130524 1.27604 0.101159)
(0.131488 1.27681 0.101931)
(0.132451 1.27759 0.102703)
(0.133415 1.27836 0.103476)
(0.134378 1.27913 0.104248)
(0.135342 1.2799 0.10502)
(0.136305 1.28068 0.105792)
(0.137269 1.28145 0.106565)
(0.138233 1.28222 0.107337)
(0.139196 1.28299 0.108109)
(0.141432 1.28326 0.108377)
(0.142698 1.28275 0.107865)
(0.143959 1.28223 0.107345)
(0.145213 1.2817 0.106819)
(0.146462 1.28117 0.106286)
(0.147704 1.28063 0.105745)
(0.14894 1.28008 0.105198)
(0.15017 1.27953 0.104644)
(0.151394 1.27896 0.104082)
(0.152611 1.2784 0.103514)
(0.153822 1.27782 0.102939)
(0.155026 1.27724 0.102356)
(0.156224 1.27665 0.101768)
(0.157414 1.27605 0.101172)
(0.158598 1.27545 0.100569)
(0.159776 1.27484 0.0999603)
(0.160946 1.27423 0.0993445)
(0.162109 1.2736 0.0987222)
(0.163265 1.27298 0.0980932)
(0.164414 1.27234 0.0974576)
(0.165555 1.2717 0.0968156)
(0.16669 1.27105 0.0961671)
(0.167817 1.2704 0.0955123)
(0.168936 1.26973 0.094851)
(0.170048 1.26907 0.0941834)
(0.171152 1.26839 0.0935095)
(0.172249 1.26771 0.0928294)
(0.173338 1.26703 0.092143)
(0.174419 1.26633 0.0914505)
(0.175492 1.26563 0.0907519)
(0.176557 1.26493 0.0900473)
(0.177614 1.26422 0.0893366)
(0.178663 1.2635 0.0886199)
(0.179704 1.26278 0.0878973)
(0.180736 1.26205 0.0871688)
(0.181761 1.26132 0.0864345)
(0.182777 1.26058 0.0856944)
(0.183784 1.25983 0.0849485)
(0.184783 1.25908 0.084197)
(0.185774 1.25832 0.0834398)
(0.186755 1.25756 0.082677)
(0.187729 1.25679 0.0819087)
(0.188693 1.25602 0.0811348)
(0.189649 1.25524 0.0803555)
(0.190595 1.25445 0.0795709)
(0.191533 1.25366 0.0787808)
(0.192462 1.25287 0.0779855)
(0.193382 1.25207 0.0771849)
(0.194292 1.25126 0.0763792)
(0.195193 1.25045 0.0755683)
(0.196086 1.24963 0.0747523)
(0.196968 1.24881 0.0739312)
(0.197842 1.24799 0.0731052)
(0.198706 1.24716 0.0722743)
(0.199561 1.24632 0.0714385)
(0.200406 1.24548 0.0705978)
(0.201242 1.24463 0.0697524)
(0.202068 1.24379 0.0689023)
(0.202884 1.24293 0.0680475)
(0.20369 1.24207 0.0671881)
(0.204487 1.24121 0.0663241)
(0.205274 1.24034 0.0654557)
(0.206051 1.23946 0.0645828)
(0.206818 1.23859 0.0637055)
(0.207576 1.23771 0.062824)
(0.208323 1.23682 0.0619381)
(0.20906 1.23593 0.061048)
(0.209787 1.23504 0.0601538)
(0.210503 1.23414 0.0592555)
(0.21121 1.23324 0.0583531)
(0.211906 1.23233 0.0574468)
(0.212592 1.23142 0.0565366)
(0.213268 1.2305 0.0556224)
(0.213933 1.22959 0.0547045)
(0.214588 1.22866 0.0537828)
(0.215232 1.22774 0.0528575)
(0.215866 1.22681 0.0519285)
(0.216489 1.22588 0.0509959)
(0.217101 1.22494 0.0500599)
(0.217703 1.224 0.0491204)
(0.218295 1.22306 0.0481775)
(0.218875 1.22211 0.0472313)
(0.219445 1.22116 0.0462818)
(0.220004 1.22021 0.0453291)
(0.220552 1.21926 0.0443733)
(0.221089 1.2183 0.0434144)
(0.221616 1.21733 0.0424525)
(0.222131 1.21637 0.0414876)
(0.222636 1.2154 0.0405198)
(0.223129 1.21443 0.0395492)
(0.223612 1.21346 0.0385758)
(0.224083 1.21248 0.0375997)
(0.224543 1.2115 0.036621)
(0.224992 1.21052 0.0356397)
(0.22543 1.20954 0.0346559)
(0.225857 1.20855 0.0336696)
(0.226273 1.20756 0.0326809)
(0.226677 1.20657 0.0316899)
(0.22707 1.20558 0.0306967)
(0.227452 1.20458 0.0297012)
(0.227823 1.20359 0.0287036)
(0.228182 1.20259 0.027704)
(0.22853 1.20159 0.0267023)
(0.228866 1.20058 0.0256987)
(0.229191 1.19958 0.0246932)
(0.229505 1.19857 0.0236859)
(0.229807 1.19756 0.0226769)
(0.230098 1.19655 0.0216661)
(0.230377 1.19554 0.0206538)
(0.230645 1.19452 0.0196399)
(0.230901 1.19351 0.0186245)
(0.231146 1.19249 0.0176077)
(0.231379 1.19147 0.0165895)
(0.2316 1.19045 0.0155701)
(0.23181 1.18943 0.0145494)
(0.232009 1.18841 0.0135276)
(0.232195 1.18739 0.0125046)
(0.232371 1.18636 0.0114807)
(0.232534 1.18534 0.0104558)
(0.232686 1.18431 0.00942995)
(0.232826 1.18329 0.00840331)
(0.232955 1.18226 0.0073759)
(0.233072 1.18123 0.0063478)
(0.233177 1.1802 0.00531906)
(0.233271 1.17917 0.00428977)
(0.233353 1.17814 0.00325997)
(0.233423 1.17711 0.00222975)
(0.233481 1.17608 0.00119915)
(0.233528 1.17505 0.000168262)
(0.233563 1.17402 -0.000862862)
(0.233587 1.17299 -0.00189415)
(0.233599 1.17196 -0.00292554)
(0.233599 1.17093 -0.00395696)
(0.233587 1.16989 -0.00498835)
(0.233563 1.16886 -0.00601964)
(0.233528 1.16783 -0.00705077)
(0.233481 1.1668 -0.00808166)
(0.233423 1.16577 -0.00911225)
(0.233353 1.16474 -0.0101425)
(0.233271 1.16371 -0.0111723)
(0.233177 1.16268 -0.0122016)
(0.233072 1.16165 -0.0132303)
(0.232955 1.16062 -0.0142584)
(0.232826 1.1596 -0.0152858)
(0.232686 1.15857 -0.0163125)
(0.232534 1.15754 -0.0173383)
(0.232371 1.15652 -0.0183632)
(0.232195 1.1555 -0.0193871)
(0.232009 1.15447 -0.0204101)
(0.23181 1.15345 -0.0214319)
(0.2316 1.15243 -0.0224526)
(0.231379 1.15141 -0.023472)
(0.231146 1.15039 -0.0244902)
(0.230901 1.14937 -0.025507)
(0.230645 1.14836 -0.0265224)
(0.230377 1.14735 -0.0275363)
(0.230098 1.14633 -0.0285486)
(0.229807 1.14532 -0.0295594)
(0.229505 1.14431 -0.0305684)
(0.229191 1.14331 -0.0315757)
(0.228866 1.1423 -0.0325812)
(0.22853 1.1413 -0.0335848)
(0.228182 1.1403 -0.0345865)
(0.227823 1.1393 -0.0355861)
(0.227452 1.1383 -0.0365837)
(0.22707 1.1373 -0.0375792)
(0.226677 1.13631 -0.0385724)
(0.226273 1.13532 -0.0395635)
(0.225857 1.13433 -0.0405521)
(0.22543 1.13334 -0.0415384)
(0.224992 1.13236 -0.0425222)
(0.224543 1.13138 -0.0435035)
(0.224083 1.1304 -0.0444822)
(0.223612 1.12942 -0.0454583)
(0.223129 1.12845 -0.0464317)
(0.222636 1.12748 -0.0474023)
(0.222131 1.12651 -0.0483701)
(0.221616 1.12555 -0.049335)
(0.221089 1.12459 -0.0502969)
(0.220552 1.12363 -0.0512558)
(0.220004 1.12267 -0.0522116)
(0.219445 1.12172 -0.0531643)
(0.218875 1.12077 -0.0541138)
(0.218295 1.11982 -0.05506)
(0.217703 1.11888 -0.0560029)
(0.217101 1.11794 -0.0569424)
(0.216489 1.117 -0.0578784)
(0.215866 1.11607 -0.058811)
(0.215232 1.11514 -0.05974)
(0.214588 1.11422 -0.0606653)
(0.213933 1.11329 -0.061587)
(0.213268 1.11238 -0.0625049)
(0.212592 1.11146 -0.0634191)
(0.211906 1.11055 -0.0643293)
(0.21121 1.10965 -0.0652357)
(0.210503 1.10874 -0.066138)
(0.209787 1.10785 -0.0670363)
(0.20906 1.10695 -0.0679305)
(0.208323 1.10606 -0.0688206)
(0.207576 1.10518 -0.0697065)
(0.206818 1.10429 -0.0705881)
(0.206051 1.10342 -0.0714653)
(0.205274 1.10254 -0.0723382)
(0.204487 1.10168 -0.0732066)
(0.20369 1.10081 -0.0740706)
(0.202884 1.09995 -0.07493)
(0.202068 1.0991 -0.0757848)
(0.201242 1.09825 -0.0766349)
(0.200406 1.0974 -0.0774803)
(0.199561 1.09656 -0.078321)
(0.198706 1.09573 -0.0791568)
(0.197842 1.0949 -0.0799877)
(0.196968 1.09407 -0.0808138)
(0.196086 1.09325 -0.0816348)
(0.195193 1.09243 -0.0824508)
(0.194292 1.09162 -0.0832617)
(0.193382 1.09081 -0.0840674)
(0.192462 1.09001 -0.084868)
(0.191533 1.08922 -0.0856633)
(0.190595 1.08843 -0.0864534)
(0.189649 1.08764 -0.087238)
(0.188693 1.08686 -0.0880173)
(0.187729 1.08609 -0.0887912)
(0.186755 1.08532 -0.0895595)
(0.185774 1.08456 -0.0903223)
(0.184783 1.0838 -0.0910795)
(0.183784 1.08305 -0.091831)
(0.182777 1.08231 -0.0925769)
(0.181761 1.08157 -0.093317)
(0.180736 1.08083 -0.0940513)
(0.179704 1.0801 -0.0947798)
(0.178663 1.07938 -0.0955024)
(0.177614 1.07866 -0.0962191)
(0.176557 1.07795 -0.0969298)
(0.175492 1.07725 -0.0976344)
(0.174419 1.07655 -0.098333)
(0.173338 1.07586 -0.0990255)
(0.172249 1.07517 -0.0997119)
(0.171152 1.07449 -0.100392)
(0.170048 1.07382 -0.101066)
(0.168936 1.07315 -0.101733)
(0.167817 1.07249 -0.102395)
(0.16669 1.07183 -0.10305)
(0.165555 1.07118 -0.103698)
(0.164414 1.07054 -0.10434)
(0.163265 1.06991 -0.104976)
(0.162109 1.06928 -0.105605)
(0.160946 1.06866 -0.106227)
(0.159776 1.06804 -0.106843)
(0.158598 1.06743 -0.107452)
(0.157414 1.06683 -0.108054)
(0.156224 1.06623 -0.10865)
(0.155026 1.06564 -0.109239)
(0.153822 1.06506 -0.109821)
(0.152611 1.06449 -0.110396)
(0.151394 1.06392 -0.110965)
(0.15017 1.06336 -0.111526)
(0.14894 1.0628 -0.11208)
(0.147704 1.06226 -0.112628)
(0.146462 1.06171 -0.113168)
(0.145213 1.06118 -0.113702)
(0.143959 1.06065 -0.114228)
(0.142698 1.06014 -0.114747)
(0.141432 1.05962 -0.115259)
(0.14016 1.28278 0.109865)
(0.14016 1.2818 0.110848)
(0.14016 1.28081 0.111831)
(0.14016 1.27983 0.112814)
(0.14016 1.27885 0.113797)
(0.14016 1.27786 0.114781)
(0.141432 1.27638 0.115259)
(0.142698 1.27586 0.114747)
(0.143959 1.27534 0.114228)
(0.145213 1.27482 0.113702)
(0.146462 1.27429 0.113168)
(0.147704 1.27374 0.112628)
(0.14894 1.2732 0.11208)
(0.15017 1.27264 0.111526)
(0.151394 1.27208 0.110965)
(0.152611 1.27151 0.110396)
(0.153822 1.27094 0.109821)
(0.155026 1.27036 0.109239)
(0.156224 1.26977 0.10865)
(0.157414 1.26917 0.108054)
(0.158598 1.26857 0.107452)
(0.159776 1.26796 0.106843)
(0.160946 1.26734 0.106227)
(0.162109 1.26672 0.105605)
(0.163265 1.26609 0.104976)
(0.164414 1.26546 0.10434)
(0.165555 1.26482 0.103698)
(0.16669 1.26417 0.10305)
(0.167817 1.26351 0.102395)
(0.168936 1.26285 0.101733)
(0.170048 1.26218 0.101066)
(0.171152 1.26151 0.100392)
(0.172249 1.26083 0.0997119)
(0.173338 1.26014 0.0990255)
(0.174419 1.25945 0.098333)
(0.175492 1.25875 0.0976344)
(0.176557 1.25805 0.0969298)
(0.177614 1.25734 0.0962191)
(0.178663 1.25662 0.0955024)
(0.179704 1.2559 0.0947798)
(0.180736 1.25517 0.0940513)
(0.181761 1.25443 0.093317)
(0.182777 1.25369 0.0925769)
(0.183784 1.25295 0.091831)
(0.184783 1.2522 0.0910795)
(0.185774 1.25144 0.0903223)
(0.186755 1.25068 0.0895595)
(0.187729 1.24991 0.0887912)
(0.188693 1.24914 0.0880173)
(0.189649 1.24836 0.087238)
(0.190595 1.24757 0.0864534)
(0.191533 1.24678 0.0856633)
(0.192462 1.24599 0.084868)
(0.193382 1.24519 0.0840674)
(0.194292 1.24438 0.0832617)
(0.195193 1.24357 0.0824508)
(0.196086 1.24275 0.0816348)
(0.196968 1.24193 0.0808138)
(0.197842 1.2411 0.0799877)
(0.198706 1.24027 0.0791568)
(0.199561 1.23944 0.078321)
(0.200406 1.2386 0.0774803)
(0.201242 1.23775 0.0766349)
(0.202068 1.2369 0.0757848)
(0.202884 1.23605 0.07493)
(0.20369 1.23519 0.0740706)
(0.204487 1.23432 0.0732066)
(0.205274 1.23346 0.0723382)
(0.206051 1.23258 0.0714653)
(0.206818 1.23171 0.0705881)
(0.207576 1.23082 0.0697065)
(0.208323 1.22994 0.0688206)
(0.20906 1.22905 0.0679305)
(0.209787 1.22815 0.0670363)
(0.210503 1.22726 0.066138)
(0.21121 1.22635 0.0652357)
(0.211906 1.22545 0.0643293)
(0.212592 1.22454 0.0634191)
(0.213268 1.22362 0.0625049)
(0.213933 1.22271 0.061587)
(0.214588 1.22178 0.0606653)
(0.215232 1.22086 0.05974)
(0.215866 1.21993 0.058811)
(0.216489 1.219 0.0578784)
(0.217101 1.21806 0.0569424)
(0.217703 1.21712 0.0560029)
(0.218295 1.21618 0.05506)
(0.218875 1.21523 0.0541138)
(0.219445 1.21428 0.0531643)
(0.220004 1.21333 0.0522116)
(0.220552 1.21237 0.0512558)
(0.221089 1.21141 0.0502969)
(0.221616 1.21045 0.049335)
(0.222131 1.20949 0.0483701)
(0.222636 1.20852 0.0474023)
(0.223129 1.20755 0.0464317)
(0.223612 1.20658 0.0454583)
(0.224083 1.2056 0.0444822)
(0.224543 1.20462 0.0435035)
(0.224992 1.20364 0.0425222)
(0.22543 1.20266 0.0415384)
(0.225857 1.20167 0.0405521)
(0.226273 1.20068 0.0395635)
(0.226677 1.19969 0.0385724)
(0.22707 1.1987 0.0375792)
(0.227452 1.1977 0.0365837)
(0.227823 1.1967 0.0355861)
(0.228182 1.1957 0.0345865)
(0.22853 1.1947 0.0335848)
(0.228866 1.1937 0.0325812)
(0.229191 1.19269 0.0315757)
(0.229505 1.19169 0.0305684)
(0.229807 1.19068 0.0295594)
(0.230098 1.18967 0.0285486)
(0.230377 1.18865 0.0275363)
(0.230645 1.18764 0.0265224)
(0.230901 1.18663 0.025507)
(0.231146 1.18561 0.0244902)
(0.231379 1.18459 0.023472)
(0.2316 1.18357 0.0224526)
(0.23181 1.18255 0.0214319)
(0.232009 1.18153 0.0204101)
(0.232195 1.18051 0.0193871)
(0.232371 1.17948 0.0183632)
(0.232534 1.17846 0.0173383)
(0.232686 1.17743 0.0163125)
(0.232826 1.1764 0.0152858)
(0.232955 1.17538 0.0142584)
(0.233072 1.17435 0.0132303)
(0.233177 1.17332 0.0122016)
(0.233271 1.17229 0.0111723)
(0.233353 1.17126 0.0101425)
(0.233423 1.17023 0.00911225)
(0.233481 1.1692 0.00808166)
(0.233528 1.16817 0.00705077)
(0.233563 1.16714 0.00601964)
(0.233587 1.16611 0.00498835)
(0.233599 1.16507 0.00395696)
(0.233599 1.16404 0.00292554)
(0.233587 1.16301 0.00189415)
(0.233563 1.16198 0.000862862)
(0.233528 1.16095 -0.000168262)
(0.233481 1.15992 -0.00119915)
(0.233423 1.15889 -0.00222975)
(0.233353 1.15786 -0.00325997)
(0.233271 1.15683 -0.00428977)
(0.233177 1.1558 -0.00531906)
(0.233072 1.15477 -0.0063478)
(0.232955 1.15374 -0.0073759)
(0.232826 1.15271 -0.00840331)
(0.232686 1.15169 -0.00942995)
(0.232534 1.15066 -0.0104558)
(0.232371 1.14964 -0.0114807)
(0.232195 1.14861 -0.0125046)
(0.232009 1.14759 -0.0135276)
(0.23181 1.14657 -0.0145494)
(0.2316 1.14555 -0.0155701)
(0.231379 1.14453 -0.0165895)
(0.231146 1.14351 -0.0176077)
(0.230901 1.14249 -0.0186245)
(0.230645 1.14148 -0.0196399)
(0.230377 1.14046 -0.0206538)
(0.230098 1.13945 -0.0216661)
(0.229807 1.13844 -0.0226769)
(0.229505 1.13743 -0.0236859)
(0.229191 1.13642 -0.0246932)
(0.228866 1.13542 -0.0256987)
(0.22853 1.13442 -0.0267023)
(0.228182 1.13341 -0.027704)
(0.227823 1.13241 -0.0287036)
(0.227452 1.13142 -0.0297012)
(0.22707 1.13042 -0.0306967)
(0.226677 1.12943 -0.0316899)
(0.226273 1.12844 -0.0326809)
(0.225857 1.12745 -0.0336696)
(0.22543 1.12646 -0.0346559)
(0.224992 1.12548 -0.0356397)
(0.224543 1.1245 -0.036621)
(0.224083 1.12352 -0.0375997)
(0.223612 1.12254 -0.0385758)
(0.223129 1.12157 -0.0395492)
(0.222636 1.1206 -0.0405198)
(0.222131 1.11963 -0.0414876)
(0.221616 1.11866 -0.0424525)
(0.221089 1.1177 -0.0434144)
(0.220552 1.11674 -0.0443733)
(0.220004 1.11579 -0.0453291)
(0.219445 1.11484 -0.0462818)
(0.218875 1.11389 -0.0472313)
(0.218295 1.11294 -0.0481775)
(0.217703 1.112 -0.0491204)
(0.217101 1.11106 -0.0500599)
(0.216489 1.11012 -0.0509959)
(0.215866 1.10919 -0.0519285)
(0.215232 1.10826 -0.0528575)
(0.214588 1.10733 -0.0537828)
(0.213933 1.10641 -0.0547045)
(0.213268 1.10549 -0.0556224)
(0.212592 1.10458 -0.0565366)
(0.211906 1.10367 -0.0574468)
(0.21121 1.10276 -0.0583531)
(0.210503 1.10186 -0.0592555)
(0.209787 1.10096 -0.0601538)
(0.20906 1.10007 -0.061048)
(0.208323 1.09918 -0.0619381)
(0.207576 1.09829 -0.062824)
(0.206818 1.09741 -0.0637055)
(0.206051 1.09653 -0.0645828)
(0.205274 1.09566 -0.0654557)
(0.204487 1.09479 -0.0663241)
(0.20369 1.09393 -0.0671881)
(0.202884 1.09307 -0.0680475)
(0.202068 1.09221 -0.0689023)
(0.201242 1.09136 -0.0697524)
(0.200406 1.09052 -0.0705978)
(0.199561 1.08968 -0.0714385)
(0.198706 1.08884 -0.0722743)
(0.197842 1.08801 -0.0731052)
(0.196968 1.08719 -0.0739312)
(0.196086 1.08636 -0.0747523)
(0.195193 1.08555 -0.0755683)
(0.194292 1.08474 -0.0763792)
(0.193382 1.08393 -0.0771849)
(0.192462 1.08313 -0.0779855)
(0.191533 1.08234 -0.0787808)
(0.190595 1.08155 -0.0795709)
(0.189649 1.08076 -0.0803555)
(0.188693 1.07998 -0.0811348)
(0.187729 1.07921 -0.0819087)
(0.186755 1.07844 -0.082677)
(0.185774 1.07768 -0.0834398)
(0.184783 1.07692 -0.084197)
(0.183784 1.07617 -0.0849485)
(0.182777 1.07542 -0.0856944)
(0.181761 1.07468 -0.0864345)
(0.180736 1.07395 -0.0871688)
(0.179704 1.07322 -0.0878973)
(0.178663 1.0725 -0.0886199)
(0.177614 1.07178 -0.0893366)
(0.176557 1.07107 -0.0900473)
(0.175492 1.07037 -0.0907519)
(0.174419 1.06967 -0.0914505)
(0.173338 1.06897 -0.092143)
(0.172249 1.06829 -0.0928294)
(0.171152 1.06761 -0.0935095)
(0.170048 1.06693 -0.0941834)
(0.168936 1.06627 -0.094851)
(0.167817 1.06561 -0.0955123)
(0.16669 1.06495 -0.0961671)
(0.165555 1.0643 -0.0968156)
(0.164414 1.06366 -0.0974576)
(0.163265 1.06302 -0.0980932)
(0.162109 1.06239 -0.0987222)
(0.160946 1.06177 -0.0993445)
(0.159776 1.06116 -0.0999603)
(0.158598 1.06055 -0.100569)
(0.157414 1.05995 -0.101172)
(0.156224 1.05935 -0.101768)
(0.155026 1.05876 -0.102356)
(0.153822 1.05818 -0.102939)
(0.152611 1.0576 -0.103514)
(0.151394 1.05703 -0.104082)
(0.15017 1.05647 -0.104644)
(0.14894 1.05592 -0.105198)
(0.147704 1.05537 -0.105745)
(0.146462 1.05483 -0.106286)
(0.145213 1.0543 -0.106819)
(0.143959 1.05377 -0.107345)
(0.142698 1.05325 -0.107865)
(0.141432 1.05274 -0.108377)
(0.0537152 1.20613 0.0450098)
(0.0544454 1.20524 0.0441238)
(0.0551574 1.20435 0.0432304)
(0.0558514 1.20345 0.04233)
(0.0565275 1.20254 0.0414228)
(0.0571859 1.20163 0.040509)
(0.0578266 1.20071 0.0395891)
(0.0584497 1.19978 0.0386631)
(0.0590555 1.19885 0.0377313)
(0.059644 1.19791 0.0367941)
(0.0602153 1.19697 0.0358515)
(0.0607695 1.19602 0.0349038)
(0.0613067 1.19507 0.0339513)
(0.0618271 1.19411 0.0329941)
(0.0623308 1.19315 0.0320325)
(0.0628178 1.19218 0.0310665)
(0.0632883 1.19121 0.0300965)
(0.0637423 1.19024 0.0291226)
(0.06418 1.18926 0.0281449)
(0.0646014 1.18828 0.0271637)
(0.0650066 1.1873 0.0261791)
(0.0653958 1.18631 0.0251912)
(0.0657689 1.18532 0.0242002)
(0.0661262 1.18432 0.0232063)
(0.0664676 1.18333 0.0222097)
(0.0667932 1.18233 0.0212104)
(0.0671031 1.18133 0.0202086)
(0.0673973 1.18032 0.0192044)
(0.067676 1.17932 0.018198)
(0.0679391 1.17831 0.0171896)
(0.0681868 1.1773 0.0161792)
(0.0684191 1.17628 0.0151669)
(0.068636 1.17527 0.014153)
(0.0688376 1.17426 0.0131374)
(0.0690239 1.17324 0.0121204)
(0.069195 1.17222 0.0111021)
(0.0693509 1.1712 0.0100826)
(0.0694916 1.17018 0.00906194)
(0.0696172 1.16916 0.00804031)
(0.0697277 1.16814 0.0070178)
(0.0698232 1.16711 0.00599454)
(0.0699035 1.16609 0.00497063)
(0.0699688 1.16506 0.00394619)
(0.0700191 1.16404 0.00292132)
(0.0700543 1.16301 0.00189614)
(0.0700746 1.16199 0.000870753)
(0.0700798 1.16096 -0.000154725)
(0.0700701 1.15994 -0.00118019)
(0.0700453 1.15891 -0.00220552)
(0.0700055 1.15789 -0.00323062)
(0.0699507 1.15686 -0.00425537)
(0.0698808 1.15584 -0.00527967)
(0.0697959 1.15481 -0.00630339)
(0.069696 1.15379 -0.00732644)
(0.0695809 1.15277 -0.00834869)
(0.0694508 1.15175 -0.00937004)
(0.0693055 1.15073 -0.0103904)
(0.069145 1.14971 -0.0114095)
(0.0689693 1.14869 -0.0124275)
(0.0687784 1.14767 -0.013444)
(0.0685722 1.14666 -0.0144591)
(0.0683506 1.14565 -0.0154725)
(0.0681137 1.14463 -0.0164843)
(0.0678613 1.14362 -0.0174941)
(0.0675935 1.14262 -0.018502)
(0.0673102 1.14161 -0.0195077)
(0.0670112 1.14061 -0.0205111)
(0.0666966 1.13961 -0.0215122)
(0.0663662 1.13861 -0.0225107)
(0.0660201 1.13761 -0.0235066)
(0.065658 1.13662 -0.0244996)
(0.0652801 1.13563 -0.0254896)
(0.064886 1.13464 -0.0264765)
(0.0644759 1.13366 -0.0274602)
(0.0640496 1.13268 -0.0284403)