/*--------------------------------*- C++ -*----------------------------------*\
  =========                 |
  \\      /  F ield         | OpenFOAM: The Open Source CFD Toolbox
   \\    /   O peration     | Website:  https://openfoam.org
    \\  /    A nd           | Version:  10
     \\/     M anipulation  |
\*---------------------------------------------------------------------------*/
FoamFile
{
    format      ascii;
    class       featureEdgeMesh;
    location    "constant/triSurface";
    object      disk.eMesh;
}
// * * * * * * * * * * * * * * * * * * * * * * * * * * * * * * * * * * * * * //


// points:

5587
(
(-0.0441116 0.214596 0.0809213)
(0.0441116 0.214596 0.0809213)
(0.0441116 0.219114 0.0809213)
(-0.0441116 0.219114 0.0809213)
(-0.0921357 0.214596 0.00225891)
(-0.0921357 0.214596 -0.00225891)
(-0.0480241 0.214596 -0.0786624)
(-0.0441116 0.214596 -0.0809213)
(0.0441116 0.214596 -0.0809213)
(0.0480241 0.214596 -0.0786624)
(0.0921357 0.214596 -0.00225891)
(0.0921357 0.214596 0.00225891)
(0.0480241 0.214596 0.0786624)
(-0.0480241 0.214596 0.0786624)
(-0.0921357 0.219114 0.00225891)
(-0.0480241 0.219114 0.0786624)
(0.0480241 0.219114 0.0786624)
(0.0921357 0.219114 0.00225891)
(0.0921357 0.219114 -0.00225891)
(0.0480241 0.219114 -0.0786624)
(0.0441116 0.219114 -0.0809213)
(-0.0441116 0.219114 -0.0809213)
(-0.0480241 0.219114 -0.0786624)
(-0.0921357 0.219114 -0.00225891)
(-0.0541667 0.214596 0.00225891)
(-0.0541667 0.214596 -0.00225891)
(-0.0290396 0.214596 -0.0457803)
(-0.0251271 0.214596 -0.0480392)
(0.0251271 0.214596 -0.0480392)
(0.0290396 0.214596 -0.0457803)
(0.0541667 0.214596 -0.00225891)
(0.0541667 0.214596 0.00225891)
(0.0290396 0.214596 0.0457803)
(0.0251271 0.214596 0.0480392)
(-0.0251271 0.214596 0.0480392)
(-0.0290396 0.214596 0.0457803)
(0.0251271 0.219114 0.0480392)
(-0.0541667 0.219114 0.00225891)
(-0.0290396 0.219114 0.0457803)
(-0.0251271 0.219114 0.0480392)
(0.0290396 0.219114 0.0457803)
(0.0541667 0.219114 0.00225891)
(0.0541667 0.219114 -0.00225891)
(0.0290396 0.219114 -0.0457803)
(0.0251271 0.219114 -0.0480392)
(-0.0251271 0.219114 -0.0480392)
(-0.0290396 0.219114 -0.0457803)
(-0.0541667 0.219114 -0.00225891)
(0.00615333 0.524033 0.0319409)
(0.00368921 0.519589 0.0323184)
(-0.0307383 0.560242 0.0106415)
(-0.0298331 0.564686 0.0129642)
(0.024585 0.524033 -0.0212994)
(0.0261439 0.519589 -0.0193541)
(0.024585 0.560242 0.0212994)
(0.0261439 0.564686 0.0193541)
(-0.0307383 0.524033 -0.0106415)
(-0.0298331 0.519589 -0.0129642)
(0.00615333 0.560242 -0.0319409)
(0.00368921 0.564686 -0.0323184)
(0.0032754 0.53592 0.0131517)
(-0.0121222 0.552799 0.00606198)
(-0.0130274 0.548355 0.00373928)
(0.00081128 0.531476 0.0135291)
(0.00975202 0.53592 -0.00941243)
(0.0113109 0.531476 -0.00746716)
(0.00975202 0.548355 0.00941243)
(0.0113109 0.552799 0.00746716)
(-0.0130274 0.53592 -0.00373928)
(-0.0121222 0.531476 -0.00606198)
(0.0032754 0.548355 -0.0131517)
(0.00081128 0.552799 -0.0135291)
(-0.0435165 0.214596 0.0812429)
(-0.0441116 0.215242 0.0809213)
(-0.042919 0.214596 0.0815601)
(-0.0423193 0.214596 0.0818729)
(-0.0417172 0.214596 0.0821813)
(-0.0411129 0.214596 0.0824853)
(-0.0405064 0.214596 0.0827848)
(-0.0398978 0.214596 0.0830798)
(-0.0392869 0.214596 0.0833704)
(-0.038674 0.214596 0.0836565)
(-0.0380589 0.214596 0.0839381)
(-0.0374418 0.214596 0.0842152)
(-0.0368227 0.214596 0.0844877)
(-0.0362017 0.214596 0.0847557)
(-0.0355786 0.214596 0.0850191)
(-0.0349537 0.214596 0.085278)
(-0.0343268 0.214596 0.0855322)
(-0.0336981 0.214596 0.0857818)
(-0.0330677 0.214596 0.0860269)
(-0.0324354 0.214596 0.0862672)
(-0.0318014 0.214596 0.086503)
(-0.0311656 0.214596 0.086734)
(-0.0305282 0.214596 0.0869604)
(-0.0298891 0.214596 0.0871822)
(-0.0292484 0.214596 0.0873992)
(-0.0286062 0.214596 0.0876115)
(-0.0279624 0.214596 0.0878191)
(-0.0273171 0.214596 0.088022)
(-0.0266703 0.214596 0.0882201)
(-0.0260221 0.214596 0.0884134)
(-0.0253725 0.214596 0.0886021)
(-0.0247216 0.214596 0.0887859)
(-0.0240693 0.214596 0.0889649)
(-0.0234157 0.214596 0.0891392)
(-0.0227608 0.214596 0.0893087)
(-0.0221047 0.214596 0.0894733)
(-0.0214474 0.214596 0.0896331)
(-0.020789 0.214596 0.0897881)
(-0.0201294 0.214596 0.0899383)
(-0.0194688 0.214596 0.0900836)
(-0.0188071 0.214596 0.0902241)
(-0.0181444 0.214596 0.0903597)
(-0.0174807 0.214596 0.0904904)
(-0.0168161 0.214596 0.0906163)
(-0.0161506 0.214596 0.0907373)
(-0.0154842 0.214596 0.0908533)
(-0.014817 0.214596 0.0909645)
(-0.0141489 0.214596 0.0910708)
(-0.0134802 0.214596 0.0911722)
(-0.0128106 0.214596 0.0912687)
(-0.0121404 0.214596 0.0913603)
(-0.0114696 0.214596 0.0914469)
(-0.0107981 0.214596 0.0915286)
(-0.010126 0.214596 0.0916054)
(-0.00945342 0.214596 0.0916773)
(-0.0087803 0.214596 0.0917442)
(-0.00810672 0.214596 0.0918062)
(-0.00743269 0.214596 0.0918632)
(-0.00675827 0.214596 0.0919153)
(-0.00608348 0.214596 0.0919624)
(-0.00540836 0.214596 0.0920046)
(-0.00473295 0.214596 0.0920418)
(-0.00405729 0.214596 0.092074)
(-0.00338141 0.214596 0.0921013)
(-0.00270535 0.214596 0.0921237)
(-0.00202914 0.214596 0.092141)
(-0.00135282 0.214596 0.0921535)
(-0.000676428 0.214596 0.0921609)
(-8.32667e-17 0.214596 0.0921634)
(0.000676428 0.214596 0.0921609)
(0.00135282 0.214596 0.0921535)
(0.00202914 0.214596 0.092141)
(0.00270535 0.214596 0.0921237)
(0.00338141 0.214596 0.0921013)
(0.00405729 0.214596 0.092074)
(0.00473295 0.214596 0.0920418)
(0.00540836 0.214596 0.0920046)
(0.00608348 0.214596 0.0919624)
(0.00675827 0.214596 0.0919153)
(0.00743269 0.214596 0.0918632)
(0.00810672 0.214596 0.0918062)
(0.0087803 0.214596 0.0917442)
(0.00945342 0.214596 0.0916773)
(0.010126 0.214596 0.0916054)
(0.0107981 0.214596 0.0915286)
(0.0114696 0.214596 0.0914469)
(0.0121404 0.214596 0.0913603)
(0.0128106 0.214596 0.0912687)
(0.0134802 0.214596 0.0911722)
(0.0141489 0.214596 0.0910708)
(0.014817 0.214596 0.0909645)
(0.0154842 0.214596 0.0908533)
(0.0161506 0.214596 0.0907373)
(0.0168161 0.214596 0.0906163)
(0.0174807 0.214596 0.0904904)
(0.0181444 0.214596 0.0903597)
(0.0188071 0.214596 0.0902241)
(0.0194688 0.214596 0.0900836)
(0.0201294 0.214596 0.0899383)
(0.020789 0.214596 0.0897881)
(0.0214474 0.214596 0.0896331)
(0.0221047 0.214596 0.0894733)
(0.0227608 0.214596 0.0893087)
(0.0234157 0.214596 0.0891392)
(0.0240693 0.214596 0.0889649)
(0.0247216 0.214596 0.0887859)
(0.0253725 0.214596 0.0886021)
(0.0260221 0.214596 0.0884134)
(0.0266703 0.214596 0.0882201)
(0.0273171 0.214596 0.088022)
(0.0279624 0.214596 0.0878191)
(0.0286062 0.214596 0.0876115)
(0.0292484 0.214596 0.0873992)
(0.0298891 0.214596 0.0871822)
(0.0305282 0.214596 0.0869604)
(0.0311656 0.214596 0.086734)
(0.0318014 0.214596 0.086503)
(0.0324354 0.214596 0.0862672)
(0.0330677 0.214596 0.0860269)
(0.0336981 0.214596 0.0857818)
(0.0343268 0.214596 0.0855322)
(0.0349537 0.214596 0.085278)
(0.0355786 0.214596 0.0850191)
(0.0362017 0.214596 0.0847557)
(0.0368227 0.214596 0.0844877)
(0.0374418 0.214596 0.0842152)
(0.0380589 0.214596 0.0839381)
(0.038674 0.214596 0.0836565)
(0.0392869 0.214596 0.0833704)
(0.0398978 0.214596 0.0830798)
(0.0405064 0.214596 0.0827848)
(0.0411129 0.214596 0.0824853)
(0.0417172 0.214596 0.0821813)
(0.0423193 0.214596 0.0818729)
(0.042919 0.214596 0.0815601)
(0.0435165 0.214596 0.0812429)
(0.0441116 0.215242 0.0809213)
(0.0441116 0.215887 0.0809213)
(0.0441116 0.216532 0.0809213)
(0.0441116 0.217178 0.0809213)
(0.0441116 0.217823 0.0809213)
(0.0441116 0.218469 0.0809213)
(0.0435165 0.219114 0.0812429)
(0.042919 0.219114 0.0815601)
(0.0423193 0.219114 0.0818729)
(0.0417172 0.219114 0.0821813)
(0.0411129 0.219114 0.0824853)
(0.0405064 0.219114 0.0827848)
(0.0398978 0.219114 0.0830798)
(0.0392869 0.219114 0.0833704)
(0.038674 0.219114 0.0836565)
(0.0380589 0.219114 0.0839381)
(0.0374418 0.219114 0.0842152)
(0.0368227 0.219114 0.0844877)
(0.0362017 0.219114 0.0847557)
(0.0355786 0.219114 0.0850191)
(0.0349537 0.219114 0.085278)
(0.0343268 0.219114 0.0855322)
(0.0336981 0.219114 0.0857818)
(0.0330677 0.219114 0.0860269)
(0.0324354 0.219114 0.0862672)
(0.0318014 0.219114 0.086503)
(0.0311656 0.219114 0.086734)
(0.0305282 0.219114 0.0869604)
(0.0298891 0.219114 0.0871822)
(0.0292484 0.219114 0.0873992)
(0.0286062 0.219114 0.0876115)
(0.0279624 0.219114 0.0878191)
(0.0273171 0.219114 0.088022)
(0.0266703 0.219114 0.0882201)
(0.0260221 0.219114 0.0884134)
(0.0253725 0.219114 0.0886021)
(0.0247216 0.219114 0.0887859)
(0.0240693 0.219114 0.0889649)
(0.0234157 0.219114 0.0891392)
(0.0227608 0.219114 0.0893087)
(0.0221047 0.219114 0.0894733)
(0.0214474 0.219114 0.0896331)
(0.020789 0.219114 0.0897881)
(0.0201294 0.219114 0.0899383)
(0.0194688 0.219114 0.0900836)
(0.0188071 0.219114 0.0902241)
(0.0181444 0.219114 0.0903597)
(0.0174807 0.219114 0.0904904)
(0.0168161 0.219114 0.0906163)
(0.0161506 0.219114 0.0907373)
(0.0154842 0.219114 0.0908533)
(0.014817 0.219114 0.0909645)
(0.0141489 0.219114 0.0910708)
(0.0134802 0.219114 0.0911722)
(0.0128106 0.219114 0.0912687)
(0.0121404 0.219114 0.0913603)
(0.0114696 0.219114 0.0914469)
(0.0107981 0.219114 0.0915286)
(0.010126 0.219114 0.0916054)
(0.00945342 0.219114 0.0916773)
(0.0087803 0.219114 0.0917442)
(0.00810672 0.219114 0.0918062)
(0.00743269 0.219114 0.0918632)
(0.00675827 0.219114 0.0919153)
(0.00608348 0.219114 0.0919624)
(0.00540836 0.219114 0.0920046)
(0.00473295 0.219114 0.0920418)
(0.00405729 0.219114 0.092074)
(0.00338141 0.219114 0.0921013)
(0.00270535 0.219114 0.0921237)
(0.00202914 0.219114 0.092141)
(0.00135282 0.219114 0.0921535)
(0.000676428 0.219114 0.0921609)
(6.93889e-17 0.219114 0.0921634)
(-0.000676428 0.219114 0.0921609)
(-0.00135282 0.219114 0.0921535)
(-0.00202914 0.219114 0.092141)
(-0.00270535 0.219114 0.0921237)
(-0.00338141 0.219114 0.0921013)
(-0.00405729 0.219114 0.092074)
(-0.00473295 0.219114 0.0920418)
(-0.00540836 0.219114 0.0920046)
(-0.00608348 0.219114 0.0919624)
(-0.00675827 0.219114 0.0919153)
(-0.00743269 0.219114 0.0918632)
(-0.00810672 0.219114 0.0918062)
(-0.0087803 0.219114 0.0917442)
(-0.00945342 0.219114 0.0916773)
(-0.010126 0.219114 0.0916054)
(-0.0107981 0.219114 0.0915286)
(-0.0114696 0.219114 0.0914469)
(-0.0121404 0.219114 0.0913603)
(-0.0128106 0.219114 0.0912687)
(-0.0134802 0.219114 0.0911722)
(-0.0141489 0.219114 0.0910708)
(-0.014817 0.219114 0.0909645)
(-0.0154842 0.219114 0.0908533)
(-0.0161506 0.219114 0.0907373)
(-0.0168161 0.219114 0.0906163)
(-0.0174807 0.219114 0.0904904)
(-0.0181444 0.219114 0.0903597)
(-0.0188071 0.219114 0.0902241)
(-0.0194688 0.219114 0.0900836)
(-0.0201294 0.219114 0.0899383)
(-0.020789 0.219114 0.0897881)
(-0.0214474 0.219114 0.0896331)
(-0.0221047 0.219114 0.0894733)
(-0.0227608 0.219114 0.0893087)
(-0.0234157 0.219114 0.0891392)
(-0.0240693 0.219114 0.0889649)
(-0.0247216 0.219114 0.0887859)
(-0.0253725 0.219114 0.0886021)
(-0.0260221 0.219114 0.0884134)
(-0.0266703 0.219114 0.0882201)
(-0.0273171 0.219114 0.088022)
(-0.0279624 0.219114 0.0878191)
(-0.0286062 0.219114 0.0876115)
(-0.0292484 0.219114 0.0873992)
(-0.0298891 0.219114 0.0871822)
(-0.0305282 0.219114 0.0869604)
(-0.0311656 0.219114 0.086734)
(-0.0318014 0.219114 0.086503)
(-0.0324354 0.219114 0.0862672)
(-0.0330677 0.219114 0.0860269)
(-0.0336981 0.219114 0.0857818)
(-0.0343268 0.219114 0.0855322)
(-0.0349537 0.219114 0.085278)
(-0.0355786 0.219114 0.0850191)
(-0.0362017 0.219114 0.0847557)
(-0.0368227 0.219114 0.0844877)
(-0.0374418 0.219114 0.0842152)
(-0.0380589 0.219114 0.0839381)
(-0.038674 0.219114 0.0836565)
(-0.0392869 0.219114 0.0833704)
(-0.0398978 0.219114 0.0830798)
(-0.0405064 0.219114 0.0827848)
(-0.0411129 0.219114 0.0824853)
(-0.0417172 0.219114 0.0821813)
(-0.0423193 0.219114 0.0818729)
(-0.042919 0.219114 0.0815601)
(-0.0435165 0.219114 0.0812429)
(-0.0441116 0.218469 0.0809213)
(-0.0441116 0.217823 0.0809213)
(-0.0441116 0.217178 0.0809213)
(-0.0441116 0.216532 0.0809213)
(-0.0441116 0.215887 0.0809213)
(-0.0914696 0.214596 0.00225891)
(-0.0921166 0.214596 0.00293507)
(-0.0908035 0.214596 0.00225891)
(-0.0901373 0.214596 0.00225891)
(-0.0894712 0.214596 0.00225891)
(-0.0888051 0.214596 0.00225891)
(-0.088139 0.214596 0.00225891)
(-0.0874728 0.214596 0.00225891)
(-0.0868067 0.214596 0.00225891)
(-0.0861406 0.214596 0.00225891)
(-0.0854745 0.214596 0.00225891)
(-0.0848083 0.214596 0.00225891)
(-0.0841422 0.214596 0.00225891)
(-0.0834761 0.214596 0.00225891)
(-0.08281 0.214596 0.00225891)
(-0.0821439 0.214596 0.00225891)
(-0.0814777 0.214596 0.00225891)
(-0.0808116 0.214596 0.00225891)
(-0.0801455 0.214596 0.00225891)
(-0.0794794 0.214596 0.00225891)
(-0.0788132 0.214596 0.00225891)
(-0.0781471 0.214596 0.00225891)
(-0.077481 0.214596 0.00225891)
(-0.0768149 0.214596 0.00225891)
(-0.0761487 0.214596 0.00225891)
(-0.0754826 0.214596 0.00225891)
(-0.0748165 0.214596 0.00225891)
(-0.0741504 0.214596 0.00225891)
(-0.0734842 0.214596 0.00225891)
(-0.0728181 0.214596 0.00225891)
(-0.072152 0.214596 0.00225891)
(-0.0714859 0.214596 0.00225891)
(-0.0708198 0.214596 0.00225891)
(-0.0701536 0.214596 0.00225891)
(-0.0694875 0.214596 0.00225891)
(-0.0688214 0.214596 0.00225891)
(-0.0681553 0.214596 0.00225891)
(-0.0674891 0.214596 0.00225891)
(-0.066823 0.214596 0.00225891)
(-0.0661569 0.214596 0.00225891)
(-0.0654908 0.214596 0.00225891)
(-0.0648246 0.214596 0.00225891)
(-0.0641585 0.214596 0.00225891)
(-0.0634924 0.214596 0.00225891)
(-0.0628263 0.214596 0.00225891)
(-0.0621602 0.214596 0.00225891)
(-0.061494 0.214596 0.00225891)
(-0.0608279 0.214596 0.00225891)
(-0.0601618 0.214596 0.00225891)
(-0.0594957 0.214596 0.00225891)
(-0.0588295 0.214596 0.00225891)
(-0.0581634 0.214596 0.00225891)
(-0.0574973 0.214596 0.00225891)
(-0.0568312 0.214596 0.00225891)
(-0.0561651 0.214596 0.00225891)
(-0.0554989 0.214596 0.00225891)
(-0.0548328 0.214596 0.00225891)
(-0.0541897 0.214596 0.00161373)
(-0.0542051 0.214596 0.000968332)
(-0.0542128 0.214596 0.000322793)
(-0.0542128 0.214596 -0.000322793)
(-0.0542051 0.214596 -0.000968332)
(-0.0541897 0.214596 -0.00161373)
(-0.0548328 0.214596 -0.00225891)
(-0.0554989 0.214596 -0.00225891)
(-0.0561651 0.214596 -0.00225891)
(-0.0568312 0.214596 -0.00225891)
(-0.0574973 0.214596 -0.00225891)
(-0.0581634 0.214596 -0.00225891)
(-0.0588295 0.214596 -0.00225891)
(-0.0594957 0.214596 -0.00225891)
(-0.0601618 0.214596 -0.00225891)
(-0.0608279 0.214596 -0.00225891)
(-0.061494 0.214596 -0.00225891)
(-0.0621602 0.214596 -0.00225891)
(-0.0628263 0.214596 -0.00225891)
(-0.0634924 0.214596 -0.00225891)
(-0.0641585 0.214596 -0.00225891)
(-0.0648246 0.214596 -0.00225891)
(-0.0654908 0.214596 -0.00225891)
(-0.0661569 0.214596 -0.00225891)
(-0.066823 0.214596 -0.00225891)
(-0.0674891 0.214596 -0.00225891)
(-0.0681553 0.214596 -0.00225891)
(-0.0688214 0.214596 -0.00225891)
(-0.0694875 0.214596 -0.00225891)
(-0.0701536 0.214596 -0.00225891)
(-0.0708198 0.214596 -0.00225891)
(-0.0714859 0.214596 -0.00225891)
(-0.072152 0.214596 -0.00225891)
(-0.0728181 0.214596 -0.00225891)
(-0.0734842 0.214596 -0.00225891)
(-0.0741504 0.214596 -0.00225891)
(-0.0748165 0.214596 -0.00225891)
(-0.0754826 0.214596 -0.00225891)
(-0.0761487 0.214596 -0.00225891)
(-0.0768149 0.214596 -0.00225891)
(-0.077481 0.214596 -0.00225891)
(-0.0781471 0.214596 -0.00225891)
(-0.0788132 0.214596 -0.00225891)
(-0.0794794 0.214596 -0.00225891)
(-0.0801455 0.214596 -0.00225891)
(-0.0808116 0.214596 -0.00225891)
(-0.0814777 0.214596 -0.00225891)
(-0.0821439 0.214596 -0.00225891)
(-0.08281 0.214596 -0.00225891)
(-0.0834761 0.214596 -0.00225891)
(-0.0841422 0.214596 -0.00225891)
(-0.0848083 0.214596 -0.00225891)
(-0.0854745 0.214596 -0.00225891)
(-0.0861406 0.214596 -0.00225891)
(-0.0868067 0.214596 -0.00225891)
(-0.0874728 0.214596 -0.00225891)
(-0.088139 0.214596 -0.00225891)
(-0.0888051 0.214596 -0.00225891)
(-0.0894712 0.214596 -0.00225891)
(-0.0901373 0.214596 -0.00225891)
(-0.0908035 0.214596 -0.00225891)
(-0.0921166 0.214596 -0.00293507)
(-0.0914696 0.214596 -0.00225891)
(-0.0920926 0.214596 -0.00361108)
(-0.0920636 0.214596 -0.00428689)
(-0.0920297 0.214596 -0.00496247)
(-0.0919908 0.214596 -0.00563778)
(-0.0919469 0.214596 -0.00631279)
(-0.0918981 0.214596 -0.00698746)
(-0.0918444 0.214596 -0.00766175)
(-0.0917857 0.214596 -0.00833563)
(-0.091722 0.214596 -0.00900906)
(-0.0916534 0.214596 -0.00968201)
(-0.0915799 0.214596 -0.0103544)
(-0.0915014 0.214596 -0.0110263)
(-0.091418 0.214596 -0.0116976)
(-0.0913297 0.214596 -0.0123682)
(-0.0912365 0.214596 -0.0130382)
(-0.0911383 0.214596 -0.0137075)
(-0.0910353 0.214596 -0.014376)
(-0.0909273 0.214596 -0.0150438)
(-0.0908144 0.214596 -0.0157107)
(-0.0906967 0.214596 -0.0163768)
(-0.090574 0.214596 -0.017042)
(-0.0904465 0.214596 -0.0177063)
(-0.0903141 0.214596 -0.0183697)
(-0.0901769 0.214596 -0.019032)
(-0.0900348 0.214596 -0.0196934)
(-0.0898878 0.214596 -0.0203537)
(-0.089736 0.214596 -0.0210128)
(-0.0895794 0.214596 -0.0216709)
(-0.0894179 0.214596 -0.0223278)
(-0.0892516 0.214596 -0.0229834)
(-0.0890805 0.214596 -0.0236379)
(-0.0889046 0.214596 -0.024291)
(-0.088724 0.214596 -0.0249429)
(-0.0885385 0.214596 -0.0255934)
(-0.0883483 0.214596 -0.0262425)
(-0.0881533 0.214596 -0.0268903)
(-0.0879536 0.214596 -0.0275365)
(-0.0877491 0.214596 -0.0281813)
(-0.0875399 0.214596 -0.0288246)
(-0.087326 0.214596 -0.0294663)
(-0.0871074 0.214596 -0.0301064)
(-0.0868841 0.214596 -0.0307449)
(-0.0866561 0.214596 -0.0313818)
(-0.0864234 0.214596 -0.032017)
(-0.0861861 0.214596 -0.0326504)
(-0.0859441 0.214596 -0.0332821)
(-0.0856975 0.214596 -0.033912)
(-0.0854463 0.214596 -0.03454)
(-0.0851905 0.214596 -0.0351662)
(-0.0849301 0.214596 -0.0357905)
(-0.0846652 0.214596 -0.0364129)
(-0.0843956 0.214596 -0.0370333)
(-0.0841216 0.214596 -0.0376517)
(-0.0838429 0.214596 -0.0382681)
(-0.0835598 0.214596 -0.0388825)
(-0.0832722 0.214596 -0.0394947)
(-0.0829801 0.214596 -0.0401048)
(-0.0826835 0.214596 -0.0407128)
(-0.0823825 0.214596 -0.0413185)
(-0.082077 0.214596 -0.041922)
(-0.0817671 0.214596 -0.0425233)
(-0.0814528 0.214596 -0.0431223)
(-0.0811341 0.214596 -0.0437189)
(-0.0808111 0.214596 -0.0443132)
(-0.0804837 0.214596 -0.0449051)
(-0.0801519 0.214596 -0.0454946)
(-0.0798158 0.214596 -0.0460817)
(-0.0794755 0.214596 -0.0466663)
(-0.0791308 0.214596 -0.0472483)
(-0.0787819 0.214596 -0.0478278)
(-0.0784288 0.214596 -0.0484047)
(-0.0780714 0.214596 -0.0489791)
(-0.0777098 0.214596 -0.0495507)
(-0.077344 0.214596 -0.0501198)
(-0.0769741 0.214596 -0.0506861)
(-0.0766 0.214596 -0.0512496)
(-0.0762218 0.214596 -0.0518105)
(-0.0758395 0.214596 -0.0523685)
(-0.0754531 0.214596 -0.0529237)
(-0.0750626 0.214596 -0.0534761)
(-0.0746681 0.214596 -0.0540255)
(-0.0742696 0.214596 -0.0545721)
(-0.0738671 0.214596 -0.0551157)
(-0.0734606 0.214596 -0.0556564)
(-0.0730501 0.214596 -0.056194)
(-0.0726357 0.214596 -0.0567287)
(-0.0722174 0.214596 -0.0572603)
(-0.0717952 0.214596 -0.0577888)
(-0.0713691 0.214596 -0.0583141)
(-0.0709392 0.214596 -0.0588364)
(-0.0705055 0.214596 -0.0593554)
(-0.0700679 0.214596 -0.0598713)
(-0.0696266 0.214596 -0.060384)
(-0.0691816 0.214596 -0.0608934)
(-0.0687328 0.214596 -0.0613995)
(-0.0682803 0.214596 -0.0619023)
(-0.0678241 0.214596 -0.0624017)
(-0.0673643 0.214596 -0.0628979)
(-0.0669008 0.214596 -0.0633906)
(-0.0664338 0.214596 -0.0638799)
(-0.0659632 0.214596 -0.0643658)
(-0.065489 0.214596 -0.0648482)
(-0.0650113 0.214596 -0.0653271)
(-0.0645301 0.214596 -0.0658024)
(-0.0640454 0.214596 -0.0662743)
(-0.0635572 0.214596 -0.0667426)
(-0.0630656 0.214596 -0.0672072)
(-0.0625707 0.214596 -0.0676683)
(-0.0620724 0.214596 -0.0681257)
(-0.0615707 0.214596 -0.0685795)
(-0.0610657 0.214596 -0.0690295)
(-0.0605574 0.214596 -0.0694758)
(-0.0600459 0.214596 -0.0699184)
(-0.0595311 0.214596 -0.0703572)
(-0.0590131 0.214596 -0.0707923)
(-0.0584919 0.214596 -0.0712235)
(-0.0579676 0.214596 -0.0716509)
(-0.0574402 0.214596 -0.0720744)
(-0.0569096 0.214596 -0.072494)
(-0.0563761 0.214596 -0.0729098)
(-0.0558394 0.214596 -0.0733216)
(-0.0552998 0.214596 -0.0737294)
(-0.0547572 0.214596 -0.0741333)
(-0.0542116 0.214596 -0.0745332)
(-0.0536631 0.214596 -0.0749291)
(-0.0531117 0.214596 -0.0753209)
(-0.0525574 0.214596 -0.0757087)
(-0.0520004 0.214596 -0.0760924)
(-0.0514405 0.214596 -0.076472)
(-0.0508779 0.214596 -0.0768475)
(-0.0503125 0.214596 -0.0772188)
(-0.0497444 0.214596 -0.077586)
(-0.0491736 0.214596 -0.077949)
(-0.0476911 0.214596 -0.0780855)
(-0.0486002 0.214596 -0.0783078)
(-0.047358 0.214596 -0.0775087)
(-0.0470249 0.214596 -0.0769318)
(-0.0466919 0.214596 -0.0763549)
(-0.0463588 0.214596 -0.075778)
(-0.0460257 0.214596 -0.0752011)
(-0.0456927 0.214596 -0.0746242)
(-0.0453596 0.214596 -0.0740474)
(-0.0450266 0.214596 -0.0734705)
(-0.0446935 0.214596 -0.0728936)
(-0.0443604 0.214596 -0.0723167)
(-0.0440274 0.214596 -0.0717399)
(-0.0436943 0.214596 -0.071163)
(-0.0433613 0.214596 -0.0705861)
(-0.0430282 0.214596 -0.0700092)
(-0.0426951 0.214596 -0.0694323)
(-0.0423621 0.214596 -0.0688554)
(-0.042029 0.214596 -0.0682786)
(-0.0416959 0.214596 -0.0677017)
(-0.0413629 0.214596 -0.0671248)
(-0.0410298 0.214596 -0.0665479)
(-0.0406968 0.214596 -0.065971)
(-0.0403637 0.214596 -0.0653942)
(-0.0400306 0.214596 -0.0648173)
(-0.0396976 0.214596 -0.0642404)
(-0.0393645 0.214596 -0.0636635)
(-0.0390315 0.214596 -0.0630867)
(-0.0386984 0.214596 -0.0625098)
(-0.0383653 0.214596 -0.0619329)
(-0.0380323 0.214596 -0.061356)
(-0.0376992 0.214596 -0.0607791)
(-0.0373662 0.214596 -0.0602023)
(-0.0370331 0.214596 -0.0596254)
(-0.0367 0.214596 -0.0590485)
(-0.036367 0.214596 -0.0584716)
(-0.0360339 0.214596 -0.0578947)
(-0.0357008 0.214596 -0.0573179)
(-0.0353678 0.214596 -0.056741)
(-0.0350347 0.214596 -0.0561641)
(-0.0347017 0.214596 -0.0555872)
(-0.0343686 0.214596 -0.0550103)
(-0.0340355 0.214596 -0.0544335)
(-0.0337025 0.214596 -0.0538566)
(-0.0333694 0.214596 -0.0532797)
(-0.0330364 0.214596 -0.0527028)
(-0.0327033 0.214596 -0.0521259)
(-0.0323702 0.214596 -0.0515491)
(-0.0320372 0.214596 -0.0509722)
(-0.0317041 0.214596 -0.0503953)
(-0.031371 0.214596 -0.0498184)
(-0.031038 0.214596 -0.0492415)
(-0.0307049 0.214596 -0.0486647)
(-0.0303719 0.214596 -0.0480878)
(-0.0300388 0.214596 -0.0475109)
(-0.0297057 0.214596 -0.046934)
(-0.0293727 0.214596 -0.0463571)
(-0.0284924 0.214596 -0.0461228)
(-0.0279412 0.214596 -0.0464588)
(-0.0273859 0.214596 -0.0467883)
(-0.0268268 0.214596 -0.0471111)
(-0.026264 0.214596 -0.0474272)
(-0.0256973 0.214596 -0.0477366)
(-0.0254601 0.214596 -0.0486161)
(-0.0257932 0.214596 -0.0491929)
(-0.0261263 0.214596 -0.0497698)
(-0.0264593 0.214596 -0.0503467)
(-0.0267924 0.214596 -0.0509236)
(-0.0271254 0.214596 -0.0515005)
(-0.0274585 0.214596 -0.0520773)
(-0.0277916 0.214596 -0.0526542)
(-0.0281246 0.214596 -0.0532311)
(-0.0284577 0.214596 -0.053808)
(-0.0287907 0.214596 -0.0543848)
(-0.0291238 0.214596 -0.0549617)
(-0.0294569 0.214596 -0.0555386)
(-0.0297899 0.214596 -0.0561155)
(-0.030123 0.214596 -0.0566924)
(-0.030456 0.214596 -0.0572692)
(-0.0307891 0.214596 -0.0578461)
(-0.0311222 0.214596 -0.058423)
(-0.0314552 0.214596 -0.0589999)
(-0.0317883 0.214596 -0.0595768)
(-0.0321214 0.214596 -0.0601536)
(-0.0324544 0.214596 -0.0607305)
(-0.0327875 0.214596 -0.0613074)
(-0.0331206 0.214596 -0.0618843)
(-0.0334536 0.214596 -0.0624612)
(-0.0337867 0.214596 -0.063038)
(-0.0341197 0.214596 -0.0636149)
(-0.0344528 0.214596 -0.0641918)
(-0.0347859 0.214596 -0.0647687)
(-0.0351189 0.214596 -0.0653456)
(-0.035452 0.214596 -0.0659224)
(-0.035785 0.214596 -0.0664993)
(-0.0361181 0.214596 -0.0670762)
(-0.0364512 0.214596 -0.0676531)
(-0.0367842 0.214596 -0.06823)
(-0.0371173 0.214596 -0.0688068)
(-0.0374504 0.214596 -0.0693837)
(-0.0377834 0.214596 -0.0699606)
(-0.0381165 0.214596 -0.0705375)
(-0.0384495 0.214596 -0.0711144)
(-0.0387826 0.214596 -0.0716912)
(-0.0391157 0.214596 -0.0722681)
(-0.0394487 0.214596 -0.072845)
(-0.0397818 0.214596 -0.0734219)
(-0.0401148 0.214596 -0.0739988)
(-0.0404479 0.214596 -0.0745756)
(-0.040781 0.214596 -0.0751525)
(-0.041114 0.214596 -0.0757294)
(-0.0414471 0.214596 -0.0763063)
(-0.0417802 0.214596 -0.0768832)
(-0.0421132 0.214596 -0.07746)
(-0.0424463 0.214596 -0.0780369)
(-0.0427793 0.214596 -0.0786138)
(-0.0431124 0.214596 -0.0791907)
(-0.0434455 0.214596 -0.0797675)
(-0.0435165 0.214596 -0.0812429)
(-0.0437785 0.214596 -0.0803444)
(-0.042919 0.214596 -0.0815601)
(-0.0423193 0.214596 -0.0818729)
(-0.0417172 0.214596 -0.0821813)
(-0.0411129 0.214596 -0.0824853)
(-0.0405064 0.214596 -0.0827848)
(-0.0398978 0.214596 -0.0830798)
(-0.0392869 0.214596 -0.0833704)
(-0.038674 0.214596 -0.0836565)
(-0.0380589 0.214596 -0.0839381)
(-0.0374418 0.214596 -0.0842152)
(-0.0368227 0.214596 -0.0844877)
(-0.0362017 0.214596 -0.0847557)
(-0.0355786 0.214596 -0.0850191)
(-0.0349537 0.214596 -0.085278)
(-0.0343268 0.214596 -0.0855322)
(-0.0336981 0.214596 -0.0857818)
(-0.0330677 0.214596 -0.0860269)
(-0.0324354 0.214596 -0.0862672)
(-0.0318014 0.214596 -0.086503)
(-0.0311656 0.214596 -0.086734)
(-0.0305282 0.214596 -0.0869604)
(-0.0298891 0.214596 -0.0871822)
(-0.0292484 0.214596 -0.0873992)
(-0.0286062 0.214596 -0.0876115)
(-0.0279624 0.214596 -0.0878191)
(-0.0273171 0.214596 -0.088022)
(-0.0266703 0.214596 -0.0882201)
(-0.0260221 0.214596 -0.0884134)
(-0.0253725 0.214596 -0.0886021)
(-0.0247216 0.214596 -0.0887859)
(-0.0240693 0.214596 -0.0889649)
(-0.0234157 0.214596 -0.0891392)
(-0.0227608 0.214596 -0.0893087)
(-0.0221047 0.214596 -0.0894733)
(-0.0214474 0.214596 -0.0896331)
(-0.020789 0.214596 -0.0897881)
(-0.0201294 0.214596 -0.0899383)
(-0.0194688 0.214596 -0.0900836)
(-0.0188071 0.214596 -0.0902241)
(-0.0181444 0.214596 -0.0903597)
(-0.0174807 0.214596 -0.0904904)
(-0.0168161 0.214596 -0.0906163)
(-0.0161506 0.214596 -0.0907373)
(-0.0154842 0.214596 -0.0908533)
(-0.014817 0.214596 -0.0909645)
(-0.0141489 0.214596 -0.0910708)
(-0.0134802 0.214596 -0.0911722)
(-0.0128106 0.214596 -0.0912687)
(-0.0121404 0.214596 -0.0913603)
(-0.0114696 0.214596 -0.0914469)
(-0.0107981 0.214596 -0.0915286)
(-0.010126 0.214596 -0.0916054)
(-0.00945342 0.214596 -0.0916773)
(-0.0087803 0.214596 -0.0917442)
(-0.00810672 0.214596 -0.0918062)
(-0.00743269 0.214596 -0.0918632)
(-0.00675827 0.214596 -0.0919153)
(-0.00608348 0.214596 -0.0919624)
(-0.00540836 0.214596 -0.0920046)
(-0.00473295 0.214596 -0.0920418)
(-0.00405729 0.214596 -0.092074)
(-0.00338141 0.214596 -0.0921013)
(-0.00270535 0.214596 -0.0921237)
(-0.00202914 0.214596 -0.092141)
(-0.00135282 0.214596 -0.0921535)
(-0.000676428 0.214596 -0.0921609)
(5.43361e-16 0.214596 -0.0921634)
(0.000676428 0.214596 -0.0921609)
(0.00135282 0.214596 -0.0921535)
(0.00202914 0.214596 -0.092141)
(0.00270535 0.214596 -0.0921237)
(0.00338141 0.214596 -0.0921013)
(0.00405729 0.214596 -0.092074)
(0.00473295 0.214596 -0.0920418)
(0.00540836 0.214596 -0.0920046)
(0.00608348 0.214596 -0.0919624)
(0.00675827 0.214596 -0.0919153)
(0.00743269 0.214596 -0.0918632)
(0.00810672 0.214596 -0.0918062)
(0.0087803 0.214596 -0.0917442)
(0.00945342 0.214596 -0.0916773)
(0.010126 0.214596 -0.0916054)
(0.0107981 0.214596 -0.0915286)
(0.0114696 0.214596 -0.0914469)
(0.0121404 0.214596 -0.0913603)
(0.0128106 0.214596 -0.0912687)
(0.0134802 0.214596 -0.0911722)
(0.0141489 0.214596 -0.0910708)
(0.014817 0.214596 -0.0909645)
(0.0154842 0.214596 -0.0908533)
(0.0161506 0.214596 -0.0907373)
(0.0168161 0.214596 -0.0906163)
(0.0174807 0.214596 -0.0904904)
(0.0181444 0.214596 -0.0903597)
(0.0188071 0.214596 -0.0902241)
(0.0194688 0.214596 -0.0900836)
(0.0201294 0.214596 -0.0899383)
(0.020789 0.214596 -0.0897881)
(0.0214474 0.214596 -0.0896331)
(0.0221047 0.214596 -0.0894733)
(0.0227608 0.214596 -0.0893087)
(0.0234157 0.214596 -0.0891392)
(0.0240693 0.214596 -0.0889649)
(0.0247216 0.214596 -0.0887859)
(0.0253725 0.214596 -0.0886021)
(0.0260221 0.214596 -0.0884134)
(0.0266703 0.214596 -0.0882201)
(0.0273171 0.214596 -0.088022)
(0.0279624 0.214596 -0.0878191)
(0.0286062 0.214596 -0.0876115)
(0.0292484 0.214596 -0.0873992)
(0.0298891 0.214596 -0.0871822)
(0.0305282 0.214596 -0.0869604)
(0.0311656 0.214596 -0.086734)
(0.0318014 0.214596 -0.086503)
(0.0324354 0.214596 -0.0862672)
(0.0330677 0.214596 -0.0860269)
(0.0336981 0.214596 -0.0857818)
(0.0343268 0.214596 -0.0855322)
(0.0349537 0.214596 -0.085278)
(0.0355786 0.214596 -0.0850191)
(0.0362017 0.214596 -0.0847557)
(0.0368227 0.214596 -0.0844877)
(0.0374418 0.214596 -0.0842152)
(0.0380589 0.214596 -0.0839381)
(0.038674 0.214596 -0.0836565)
(0.0392869 0.214596 -0.0833704)
(0.0398978 0.214596 -0.0830798)
(0.0405064 0.214596 -0.0827848)
(0.0411129 0.214596 -0.0824853)
(0.0417172 0.214596 -0.0821813)
(0.0423193 0.214596 -0.0818729)
(0.042919 0.214596 -0.0815601)
(0.0437785 0.214596 -0.0803444)
(0.0435165 0.214596 -0.0812429)
(0.0434455 0.214596 -0.0797675)
(0.0431124 0.214596 -0.0791907)
(0.0427793 0.214596 -0.0786138)
(0.0424463 0.214596 -0.0780369)
(0.0421132 0.214596 -0.07746)
(0.0417802 0.214596 -0.0768832)
(0.0414471 0.214596 -0.0763063)
(0.041114 0.214596 -0.0757294)
(0.040781 0.214596 -0.0751525)
(0.0404479 0.214596 -0.0745756)
(0.0401148 0.214596 -0.0739988)
(0.0397818 0.214596 -0.0734219)
(0.0394487 0.214596 -0.072845)
(0.0391157 0.214596 -0.0722681)
(0.0387826 0.214596 -0.0716912)
(0.0384495 0.214596 -0.0711144)
(0.0381165 0.214596 -0.0705375)
(0.0377834 0.214596 -0.0699606)
(0.0374504 0.214596 -0.0693837)
(0.0371173 0.214596 -0.0688068)
(0.0367842 0.214596 -0.06823)
(0.0364512 0.214596 -0.0676531)
(0.0361181 0.214596 -0.0670762)
(0.035785 0.214596 -0.0664993)
(0.035452 0.214596 -0.0659224)
(0.0351189 0.214596 -0.0653456)
(0.0347859 0.214596 -0.0647687)
(0.0344528 0.214596 -0.0641918)
(0.0341197 0.214596 -0.0636149)
(0.0337867 0.214596 -0.063038)
(0.0334536 0.214596 -0.0624612)
(0.0331206 0.214596 -0.0618843)
(0.0327875 0.214596 -0.0613074)
(0.0324544 0.214596 -0.0607305)
(0.0321214 0.214596 -0.0601536)
(0.0317883 0.214596 -0.0595768)
(0.0314552 0.214596 -0.0589999)
(0.0311222 0.214596 -0.058423)
(0.0307891 0.214596 -0.0578461)
(0.030456 0.214596 -0.0572692)
(0.030123 0.214596 -0.0566924)
(0.0297899 0.214596 -0.0561155)
(0.0294569 0.214596 -0.0555386)
(0.0291238 0.214596 -0.0549617)
(0.0287907 0.214596 -0.0543848)