/*--------------------------------*- C++ -*----------------------------------*\
  =========                 |
  \\      /  F ield         | OpenFOAM: The Open Source CFD Toolbox
   \\    /   O peration     | Website:  https://openfoam.org
    \\  /    A nd           | Version:  10
     \\/     M anipulation  |
\*---------------------------------------------------------------------------*/
FoamFile
{
    format      ascii;
    class       featureEdgeMesh;
    location    "constant/triSurface";
    object      pitched_blades.eMesh;
}
// * * * * * * * * * * * * * * * * * * * * * * * * * * * * * * * * * * * * * //


// points:

3271
(
(0.024585 0.524033 -0.0212994)
(0.0650565 0.491599 -0.0537328)
(0.0650565 0.488405 -0.0505382)
(0.0261439 0.519589 -0.0193541)
(0.0261439 0.564686 0.0193541)
(0.0650565 0.59587 0.0505382)
(0.0650565 0.592676 0.0537328)
(0.024585 0.560242 0.0212994)
(-0.0307383 0.524033 -0.0106415)
(-0.0790622 0.491599 -0.0294742)
(-0.0762956 0.488405 -0.0310715)
(-0.0298331 0.519589 -0.0129642)
(0.00368921 0.564686 -0.0323184)
(0.0112391 0.59587 -0.0816097)
(0.0140057 0.592676 -0.083207)
(0.00615333 0.560242 -0.0319409)
(0.00615333 0.524033 0.0319409)
(0.0140057 0.491599 0.083207)
(0.0112391 0.488405 0.0816097)
(0.00368921 0.519589 0.0323184)
(-0.0298331 0.564686 0.0129642)
(-0.0762956 0.59587 0.0310715)
(-0.0790622 0.592676 0.0294742)
(-0.0307383 0.560242 0.0106415)
(0.0250298 0.523676 -0.0216558)
(0.0247862 0.523476 -0.0210649)
(0.0254745 0.52332 -0.0220122)
(0.0259192 0.522964 -0.0223686)
(0.026364 0.522607 -0.022725)
(0.0268087 0.522251 -0.0230815)
(0.0272535 0.521894 -0.0234379)
(0.0276982 0.521538 -0.0237943)
(0.0281429 0.521182 -0.0241507)
(0.0285877 0.520825 -0.0245071)
(0.0290324 0.520469 -0.0248635)
(0.0294772 0.520112 -0.0252199)
(0.0299219 0.519756 -0.0255763)
(0.0303666 0.519399 -0.0259327)
(0.0308114 0.519043 -0.0262892)
(0.0312561 0.518687 -0.0266456)
(0.0317009 0.51833 -0.027002)
(0.0321456 0.517974 -0.0273584)
(0.0325904 0.517617 -0.0277148)
(0.0330351 0.517261 -0.0280712)
(0.0334798 0.516904 -0.0284276)
(0.0339246 0.516548 -0.028784)
(0.0343693 0.516192 -0.0291404)
(0.0348141 0.515835 -0.0294969)
(0.0352588 0.515479 -0.0298533)
(0.0357036 0.515122 -0.0302097)
(0.0361483 0.514766 -0.0305661)
(0.036593 0.51441 -0.0309225)
(0.0370378 0.514053 -0.0312789)
(0.0374825 0.513697 -0.0316353)
(0.0379273 0.51334 -0.0319917)
(0.038372 0.512984 -0.0323481)
(0.0388167 0.512628 -0.0327046)
(0.0392615 0.512271 -0.033061)
(0.0397062 0.511915 -0.0334174)
(0.040151 0.511558 -0.0337738)
(0.0405957 0.511202 -0.0341302)
(0.0410405 0.510846 -0.0344866)
(0.0414852 0.510489 -0.034843)
(0.0419299 0.510133 -0.0351994)
(0.0423747 0.509776 -0.0355558)
(0.0428194 0.50942 -0.0359122)
(0.0432642 0.509063 -0.0362687)
(0.0437089 0.508707 -0.0366251)
(0.0441536 0.508351 -0.0369815)
(0.0445984 0.507994 -0.0373379)
(0.0450431 0.507638 -0.0376943)
(0.0454879 0.507281 -0.0380507)
(0.0459326 0.506925 -0.0384071)
(0.0463773 0.506569 -0.0387635)
(0.0468221 0.506212 -0.0391199)
(0.0472668 0.505856 -0.0394763)
(0.0477116 0.505499 -0.0398328)
(0.0481563 0.505143 -0.0401892)
(0.0486011 0.504787 -0.0405456)
(0.0490458 0.50443 -0.040902)
(0.0494905 0.504074 -0.0412584)
(0.0499353 0.503717 -0.0416148)
(0.05038 0.503361 -0.0419712)
(0.0508248 0.503004 -0.0423276)
(0.0512695 0.502648 -0.042684)
(0.0517142 0.502292 -0.0430405)
(0.052159 0.501935 -0.0433969)
(0.0526037 0.501579 -0.0437533)
(0.0530485 0.501222 -0.0441097)
(0.0534932 0.500866 -0.0444661)
(0.053938 0.50051 -0.0448225)
(0.0543827 0.500153 -0.0451789)
(0.0548274 0.499797 -0.0455353)
(0.0552722 0.49944 -0.0458917)
(0.0557169 0.499084 -0.0462481)
(0.0561617 0.498728 -0.0466046)
(0.0566064 0.498371 -0.046961)
(0.0570511 0.498015 -0.0473174)
(0.0574959 0.497658 -0.0476738)
(0.0579406 0.497302 -0.0480302)
(0.0583854 0.496946 -0.0483866)
(0.0588301 0.496589 -0.048743)
(0.0592749 0.496233 -0.0490994)
(0.0597196 0.495876 -0.0494558)
(0.0601643 0.49552 -0.0498122)
(0.0606091 0.495164 -0.0501687)
(0.0610538 0.494807 -0.0505251)
(0.0614986 0.494451 -0.0508815)
(0.0619433 0.494094 -0.0512379)
(0.0623881 0.493738 -0.0515943)
(0.0628328 0.493381 -0.0519507)
(0.0632775 0.493025 -0.0523071)
(0.0637223 0.492669 -0.0526635)
(0.064167 0.492312 -0.0530199)
(0.0646118 0.491956 -0.0533764)
(0.0650565 0.491143 -0.0532764)
(0.0650565 0.490687 -0.05282)
(0.0650565 0.49023 -0.0523637)
(0.0650565 0.489774 -0.0519073)
(0.0650565 0.489318 -0.0514509)
(0.0650565 0.488861 -0.0509946)
(0.0646092 0.488763 -0.0501797)
(0.064162 0.489122 -0.0498213)
(0.0637147 0.48948 -0.0494629)
(0.0632674 0.489839 -0.0491044)
(0.0628202 0.490197 -0.048746)
(0.0623729 0.490555 -0.0483876)
(0.0619256 0.490914 -0.0480291)
(0.0614783 0.491272 -0.0476707)
(0.0610311 0.491631 -0.0473122)
(0.0605838 0.491989 -0.0469538)
(0.0601365 0.492348 -0.0465954)
(0.0596892 0.492706 -0.0462369)
(0.059242 0.493064 -0.0458785)
(0.0587947 0.493423 -0.0455201)
(0.0583474 0.493781 -0.0451616)
(0.0579002 0.49414 -0.0448032)
(0.0574529 0.494498 -0.0444448)
(0.0570056 0.494857 -0.0440863)
(0.0565583 0.495215 -0.0437279)
(0.0561111 0.495574 -0.0433694)
(0.0556638 0.495932 -0.043011)
(0.0552165 0.49629 -0.0426526)
(0.0547693 0.496649 -0.0422941)
(0.054322 0.497007 -0.0419357)
(0.0538747 0.497366 -0.0415772)
(0.0534275 0.497724 -0.0412188)
(0.0529802 0.498083 -0.0408604)
(0.0525329 0.498441 -0.0405019)
(0.0520856 0.4988 -0.0401435)
(0.0516384 0.499158 -0.0397851)
(0.0511911 0.499516 -0.0394266)
(0.0507438 0.499875 -0.0390682)
(0.0502966 0.500233 -0.0387097)
(0.0498493 0.500592 -0.0383513)
(0.049402 0.50095 -0.0379929)
(0.0489548 0.501309 -0.0376344)
(0.0485075 0.501667 -0.037276)
(0.0480602 0.502025 -0.0369176)
(0.0476129 0.502384 -0.0365591)
(0.0471657 0.502742 -0.0362007)
(0.0467184 0.503101 -0.0358423)
(0.0462711 0.503459 -0.0354838)
(0.0458238 0.503818 -0.0351254)
(0.0453766 0.504176 -0.0347669)
(0.0449293 0.504534 -0.0344085)
(0.044482 0.504893 -0.0340501)
(0.0440348 0.505251 -0.0336916)
(0.0435875 0.50561 -0.0333332)
(0.0431402 0.505968 -0.0329748)
(0.042693 0.506327 -0.0326163)
(0.0422457 0.506685 -0.0322579)
(0.0417984 0.507044 -0.0318994)
(0.0413511 0.507402 -0.031541)
(0.0409039 0.50776 -0.0311826)
(0.0404566 0.508119 -0.0308241)
(0.0400093 0.508477 -0.0304657)
(0.0395621 0.508836 -0.0301073)
(0.0391148 0.509194 -0.0297488)
(0.0386675 0.509553 -0.0293904)
(0.0382202 0.509911 -0.0290319)
(0.037773 0.51027 -0.0286735)
(0.0373257 0.510628 -0.0283151)
(0.0368784 0.510986 -0.0279566)
(0.0364312 0.511345 -0.0275982)
(0.0359839 0.511703 -0.0272398)
(0.0355366 0.512062 -0.0268813)
(0.0350894 0.51242 -0.0265229)
(0.0346421 0.512779 -0.0261644)
(0.0341948 0.513137 -0.025806)
(0.0337475 0.513495 -0.0254476)
(0.0333003 0.513854 -0.0250891)
(0.032853 0.514212 -0.0247307)
(0.0324057 0.514571 -0.0243723)
(0.0319584 0.514929 -0.0240138)
(0.0315112 0.515288 -0.0236554)
(0.0310639 0.515646 -0.0232969)
(0.0306166 0.516005 -0.0229385)
(0.0301694 0.516363 -0.0225801)
(0.0297221 0.516721 -0.0222216)
(0.0292748 0.51708 -0.0218632)
(0.0288275 0.517438 -0.0215048)
(0.0283803 0.517797 -0.0211463)
(0.027933 0.518155 -0.0207879)
(0.0274857 0.518514 -0.0204294)
(0.0270385 0.518872 -0.020071)
(0.0265912 0.51923 -0.0197126)
(0.0259555 0.520143 -0.0196061)
(0.0257653 0.520697 -0.0198554)
(0.0255731 0.521252 -0.0201023)
(0.0253791 0.521807 -0.0203467)
(0.0251833 0.522363 -0.0205886)
(0.0249857 0.522919 -0.020828)
(0.0249324 0.52444 -0.0208917)
(0.0252713 0.524852 -0.0204805)
(0.0256018 0.525266 -0.0200658)
(0.0259239 0.525684 -0.0196478)
(0.0262378 0.526105 -0.0192267)
(0.0265433 0.526529 -0.0188026)
(0.0268407 0.526956 -0.0183756)
(0.02713 0.527386 -0.0179458)
(0.0274111 0.527819 -0.0175133)
(0.0276843 0.528254 -0.0170783)
(0.0279495 0.528691 -0.0166408)
(0.0282067 0.529131 -0.0162009)
(0.0284561 0.529573 -0.0157588)
(0.0286976 0.530018 -0.0153145)
(0.0289314 0.530464 -0.0148682)
(0.0291574 0.530912 -0.0144198)
(0.0293758 0.531363 -0.0139696)
(0.0295865 0.531815 -0.0135175)
(0.0297897 0.532268 -0.0130637)
(0.0299853 0.532724 -0.0126083)
(0.0301734 0.533181 -0.0121512)
(0.030354 0.533639 -0.0116927)
(0.0305272 0.534099 -0.0112327)
(0.0306931 0.534561 -0.0107714)
(0.0308515 0.535023 -0.0103088)
(0.0310026 0.535487 -0.00984498)
(0.0311465 0.535952 -0.00937999)
(0.0312831 0.536418 -0.0089139)
(0.0314124 0.536885 -0.00844678)
(0.0315345 0.537354 -0.0079787)
(0.0316495 0.537822 -0.0075097)
(0.0317573 0.538292 -0.00703986)
(0.031858 0.538763 -0.00656922)
(0.0319516 0.539234 -0.00609786)
(0.0320381 0.539706 -0.00562582)
(0.0321175 0.540179 -0.00515315)
(0.0321898 0.540652 -0.00467992)
(0.0322552 0.541126 -0.00420618)
(0.0323135 0.5416 -0.00373198)
(0.0323647 0.542075 -0.00325738)
(0.032409 0.54255 -0.00278242)
(0.0324463 0.543025 -0.00230716)
(0.0324766 0.5435 -0.00183166)
(0.0325 0.543976 -0.00135596)
(0.0325163 0.544452 -0.000880109)
(0.0325257 0.544928 -0.000404168)
(0.0325282 0.545404 7.1817e-05)
(0.0325236 0.54588 0.000547794)
(0.0325121 0.546356 0.00102371)
(0.0324937 0.546832 0.00149952)
(0.0324682 0.547307 0.00197517)
(0.0324358 0.547783 0.0024506)
(0.0323964 0.548258 0.00292578)
(0.03235 0.548733 0.00340063)
(0.0322966 0.549207 0.00387512)
(0.0322362 0.549681 0.00434919)
(0.0321687 0.550155 0.00482278)
(0.0320943 0.550628 0.00529584)
(0.0320127 0.5511 0.00576833)
(0.0319241 0.551572 0.00624017)
(0.0318284 0.552043 0.00671132)
(0.0317255 0.552514 0.00718172)
(0.0316156 0.552984 0.00765132)
(0.0314985 0.553452 0.00812004)
(0.0313741 0.55392 0.00858784)
(0.0312426 0.554387 0.00905466)
(0.0311038 0.554853 0.00952042)
(0.0309578 0.555317 0.00998507)
(0.0308045 0.555781 0.0104485)
(0.0306438 0.556243 0.0109108)
(0.0304758 0.556704 0.0113717)
(0.0303003 0.557163 0.0118312)
(0.0301174 0.557621 0.0122893)
(0.0299271 0.558078 0.0127459)
(0.0297292 0.558533 0.0132008)
(0.0295238 0.558986 0.0136541)
(0.0293107 0.559438 0.0141056)
(0.02909 0.559888 0.0145553)
(0.0288617 0.560335 0.0150031)
(0.0286255 0.560781 0.0154488)
(0.0283816 0.561225 0.0158924)
(0.0281299 0.561666 0.0163339)
(0.0278703 0.562105 0.0167731)
(0.0276027 0.562542 0.0172098)
(0.0273271 0.562976 0.0176441)
(0.0270435 0.563408 0.0180758)
(0.0267518 0.563837 0.0185048)
(0.026452 0.564263 0.0189309)
(0.0265912 0.565045 0.0197126)
(0.0270385 0.565403 0.020071)
(0.0274857 0.565762 0.0204294)
(0.027933 0.56612 0.0207879)
(0.0283803 0.566478 0.0211463)
(0.0288275 0.566837 0.0215048)
(0.0292748 0.567195 0.0218632)
(0.0297221 0.567554 0.0222216)
(0.0301694 0.567912 0.0225801)
(0.0306166 0.568271 0.0229385)
(0.0310639 0.568629 0.0232969)
(0.0315112 0.568987 0.0236554)
(0.0319584 0.569346 0.0240138)
(0.0324057 0.569704 0.0243723)
(0.032853 0.570063 0.0247307)
(0.0333003 0.570421 0.0250891)
(0.0337475 0.57078 0.0254476)
(0.0341948 0.571138 0.025806)
(0.0346421 0.571497 0.0261644)
(0.0350894 0.571855 0.0265229)
(0.0355366 0.572213 0.0268813)
(0.0359839 0.572572 0.0272398)
(0.0364312 0.57293 0.0275982)
(0.0368784 0.573289 0.0279566)
(0.0373257 0.573647 0.0283151)
(0.037773 0.574006 0.0286735)
(0.0382202 0.574364 0.0290319)
(0.0386675 0.574723 0.0293904)
(0.0391148 0.575081 0.0297488)
(0.0395621 0.575439 0.0301073)
(0.0400093 0.575798 0.0304657)
(0.0404566 0.576156 0.0308241)
(0.0409039 0.576515 0.0311826)
(0.0413511 0.576873 0.031541)
(0.0417984 0.577232 0.0318994)
(0.0422457 0.57759 0.0322579)
(0.042693 0.577949 0.0326163)
(0.0431402 0.578307 0.0329748)
(0.0435875 0.578665 0.0333332)
(0.0440348 0.579024 0.0336916)
(0.044482 0.579382 0.0340501)
(0.0449293 0.579741 0.0344085)
(0.0453766 0.580099 0.0347669)
(0.0458238 0.580458 0.0351254)
(0.0462711 0.580816 0.0354838)
(0.0467184 0.581174 0.0358423)
(0.0471657 0.581533 0.0362007)
(0.0476129 0.581891 0.0365591)
(0.0480602 0.58225 0.0369176)
(0.0485075 0.582608 0.037276)
(0.0489548 0.582967 0.0376344)
(0.049402 0.583325 0.0379929)
(0.0498493 0.583683 0.0383513)
(0.0502966 0.584042 0.0387097)
(0.0507438 0.5844 0.0390682)
(0.0511911 0.584759 0.0394266)
(0.0516384 0.585117 0.0397851)
(0.0520856 0.585476 0.0401435)
(0.0525329 0.585834 0.0405019)
(0.0529802 0.586192 0.0408604)
(0.0534275 0.586551 0.0412188)
(0.0538747 0.586909 0.0415772)
(0.054322 0.587268 0.0419357)
(0.0547693 0.587626 0.0422941)
(0.0552165 0.587985 0.0426526)
(0.0556638 0.588343 0.043011)
(0.0561111 0.588702 0.0433694)
(0.0565583 0.58906 0.0437279)
(0.0570056 0.589418 0.0440863)
(0.0574529 0.589777 0.0444448)
(0.0579002 0.590135 0.0448032)
(0.0583474 0.590494 0.0451616)
(0.0587947 0.590852 0.0455201)
(0.059242 0.591211 0.0458785)
(0.0596892 0.591569 0.0462369)
(0.0601365 0.591928 0.0465954)
(0.0605838 0.592286 0.0469538)
(0.0610311 0.592644 0.0473122)
(0.0614783 0.593003 0.0476707)
(0.0619256 0.593361 0.0480291)
(0.0623729 0.59372 0.0483876)
(0.0628202 0.594078 0.048746)
(0.0632674 0.594437 0.0491044)
(0.0637147 0.594795 0.0494629)
(0.064162 0.595154 0.0498213)
(0.0646092 0.595512 0.0501797)
(0.0656469 0.595636 0.0503039)
(0.0662347 0.595398 0.0500663)
(0.0668197 0.595158 0.0498253)
(0.067402 0.594913 0.0495811)
(0.0679815 0.594666 0.0493335)
(0.0685582 0.594415 0.0490827)
(0.069132 0.594161 0.0488286)
(0.0697029 0.593903 0.0485712)
(0.0702709 0.593643 0.0483106)
(0.0708359 0.593379 0.0480468)
(0.0713978 0.593112 0.0477798)
(0.0719568 0.592842 0.0475097)
(0.0725126 0.592569 0.0472363)
(0.0730653 0.592292 0.0469598)
(0.0736149 0.592012 0.0466802)
(0.0741613 0.59173 0.0463975)
(0.0747044 0.591444 0.0461117)
(0.0752443 0.591155 0.0458228)
(0.0757809 0.590863 0.0455308)
(0.0763141 0.590568 0.0452358)
(0.076844 0.59027 0.0449378)
(0.0773705 0.589969 0.0446368)
(0.0778936 0.589665 0.0443329)
(0.0784132 0.589358 0.0440259)
(0.0789293 0.589048 0.0437161)
(0.0794418 0.588735 0.0434033)
(0.0799508 0.58842 0.0430876)
(0.0804562 0.588101 0.042769)
(0.080958 0.58778 0.0424476)
(0.0814561 0.587456 0.0421233)
(0.0819504 0.587128 0.0417962)
(0.0824411 0.586798 0.0414664)
(0.082928 0.586466 0.0411337)
(0.0834111 0.58613 0.0407983)
(0.0838904 0.585792 0.0404602)
(0.0843659 0.585451 0.0401193)
(0.0848374 0.585108 0.0397758)
(0.0853051 0.584762 0.0394296)
(0.0857688 0.584413 0.0390808)
(0.0862285 0.584062 0.0387293)
(0.0866842 0.583707 0.0383753)
(0.0871359 0.583351 0.0380186)
(0.0875835 0.582992 0.0376595)
(0.0880271 0.58263 0.0372977)
(0.0884665 0.582266 0.0369335)
(0.0889018 0.581899 0.0365668)
(0.0893328 0.58153 0.0361977)
(0.0897597 0.581158 0.0358261)
(0.0901824 0.580784 0.0354521)
(0.0906008 0.580408 0.0350757)
(0.0910149 0.580029 0.0346969)
(0.0914247 0.579648 0.0343158)
(0.0918301 0.579265 0.0339324)
(0.0922312 0.578879 0.0335467)
(0.0926279 0.578491 0.0331588)
(0.0930202 0.578101 0.0327686)
(0.0934081 0.577708 0.0323762)
(0.0937914 0.577314 0.0319816)
(0.0941703 0.576917 0.0315848)
(0.0945447 0.576518 0.0311859)
(0.0949145 0.576117 0.0307849)
(0.0952798 0.575714 0.0303818)
(0.0956405 0.575309 0.0299767)
(0.0959966 0.574902 0.0295695)
(0.096348 0.574493 0.0291603)
(0.0966948 0.574081 0.0287491)
(0.0970369 0.573668 0.028336)
(0.0973743 0.573253 0.0279209)
(0.097707 0.572836 0.027504)
(0.0980349 0.572417 0.0270851)
(0.0983581 0.571997 0.0266645)
(0.0986765 0.571574 0.0262419)
(0.0989901 0.57115 0.0258176)
(0.0992988 0.570724 0.0253916)
(0.0996027 0.570296 0.0249638)
(0.0999018 0.569866 0.0245343)
(0.100196 0.569435 0.0241031)
(0.100485 0.569002 0.0236702)
(0.100769 0.568568 0.0232357)
(0.101049 0.568132 0.0227997)
(0.101323 0.567694 0.022362)
(0.101593 0.567255 0.0219228)
(0.101857 0.566814 0.0214821)
(0.102117 0.566372 0.0210399)
(0.102371 0.565928 0.0205963)
(0.102621 0.565483 0.0201512)
(0.102865 0.565037 0.0197047)
(0.103104 0.564589 0.0192568)
(0.103338 0.56414 0.0188076)
(0.103567 0.563689 0.0183571)
(0.103791 0.563237 0.0179053)
(0.10401 0.562784 0.0174522)
(0.104224 0.56233 0.016998)
(0.104432 0.561875 0.0165425)
(0.104635 0.561418 0.0160858)
(0.104834 0.56096 0.015628)
(0.105026 0.560501 0.0151692)
(0.105214 0.560041 0.0147092)
(0.105397 0.55958 0.0142481)
(0.105574 0.559118 0.0137861)
(0.105746 0.558655 0.013323)
(0.105913 0.558191 0.0128591)
(0.106074 0.557726 0.0123941)
(0.10623 0.55726 0.0119283)
(0.106381 0.556794 0.0114616)
(0.106527 0.556326 0.010994)
(0.106667 0.555858 0.0105257)
(0.106802 0.555389 0.0100565)
(0.106932 0.554919 0.00958664)
(0.107056 0.554448 0.00911603)
(0.107175 0.553977 0.00864473)
(0.107288 0.553505 0.00817277)
(0.107396 0.553032 0.00770018)
(0.107499 0.552559 0.00722699)
(0.107597 0.552085 0.00675324)
(0.107689 0.551611 0.00627894)
(0.107776 0.551136 0.00580414)
(0.107857 0.550661 0.00532886)
(0.107933 0.550185 0.00485313)
(0.108003 0.549709 0.00437699)
(0.108068 0.549233 0.00390047)
(0.108128 0.548756 0.00342359)
(0.108182 0.548279 0.00294639)
(0.108231 0.547801 0.00246889)
(0.108275 0.547323 0.00199113)
(0.108313 0.546845 0.00151315)
(0.108345 0.546367 0.00103496)
(0.108373 0.545889 0.000556597)
(0.108394 0.54541 7.81001e-05)
(0.10841 0.544932 -0.000400505)
(0.108421 0.544453 -0.000879187)
(0.108427 0.543974 -0.00135792)
(0.108427 0.543495 -0.00183666)
(0.108421 0.543017 -0.00231539)
(0.10841 0.542538 -0.00279407)
(0.108394 0.542059 -0.00327268)
(0.108373 0.541581 -0.00375117)
(0.108345 0.541103 -0.00422953)
(0.108313 0.540624 -0.00470772)
(0.108275 0.540146 -0.00518571)
(0.108231 0.539669 -0.00566347)
(0.108182 0.539191 -0.00614096)
(0.108128 0.538714 -0.00661817)
(0.108068 0.538237 -0.00709505)
(0.108003 0.537761 -0.00757157)
(0.107933 0.537284 -0.00804771)
(0.107857 0.536809 -0.00852344)
(0.107776 0.536333 -0.00899872)
(0.107689 0.535859 -0.00947352)
(0.107597 0.535384 -0.00994781)
(0.107499 0.534911 -0.0104216)
(0.107396 0.534437 -0.0108948)
(0.107288 0.533965 -0.0113673)
(0.107175 0.533493 -0.0118393)
(0.107056 0.533022 -0.0123106)
(0.106932 0.532551 -0.0127812)
(0.106802 0.532081 -0.0132511)
(0.106667 0.531612 -0.0137202)
(0.106527 0.531143 -0.0141886)
(0.106381 0.530676 -0.0146561)
(0.10623 0.530209 -0.0151229)
(0.106074 0.529743 -0.0155887)
(0.105913 0.529279 -0.0160536)
(0.105746 0.528814 -0.0165176)
(0.105574 0.528351 -0.0169807)
(0.105397 0.527889 -0.0174427)
(0.105214 0.527428 -0.0179038)
(0.105026 0.526968 -0.0183637)
(0.104834 0.52651 -0.0188226)
(0.104635 0.526052 -0.0192804)
(0.104432 0.525595 -0.0197371)
(0.104224 0.52514 -0.0201926)
(0.10401 0.524685 -0.0206468)
(0.103791 0.524232 -0.0210999)
(0.103567 0.523781 -0.0215517)
(0.103338 0.52333 -0.0220022)
(0.103104 0.522881 -0.0224514)
(0.102865 0.522433 -0.0228993)
(0.102621 0.521986 -0.0233457)
(0.102371 0.521541 -0.0237908)
(0.102117 0.521098 -0.0242345)
(0.101857 0.520656 -0.0246767)
(0.101593 0.520215 -0.0251174)
(0.101323 0.519776 -0.0255566)
(0.101049 0.519338 -0.0259942)
(0.100769 0.518902 -0.0264303)
(0.100485 0.518467 -0.0268648)
(0.100196 0.518035 -0.0272976)
(0.0999018 0.517603 -0.0277288)
(0.0996027 0.517174 -0.0281583)
(0.0992988 0.516746 -0.0285862)
(0.0989901 0.51632 -0.0290122)
(0.0986765 0.515896 -0.0294365)
(0.0983581 0.515473 -0.029859)
(0.0980349 0.515052 -0.0302797)
(0.097707 0.514634 -0.0306985)
(0.0973743 0.514217 -0.0311155)
(0.0970369 0.513802 -0.0315306)
(0.0966948 0.513389 -0.0319437)
(0.096348 0.512977 -0.0323549)
(0.0959966 0.512568 -0.0327641)
(0.0956405 0.512161 -0.0331713)
(0.0952798 0.511756 -0.0335764)
(0.0949145 0.511353 -0.0339795)
(0.0945447 0.510952 -0.0343805)
(0.0941703 0.510553 -0.0347794)
(0.0937914 0.510156 -0.0351762)
(0.0934081 0.509761 -0.0355708)
(0.0930202 0.509369 -0.0359632)
(0.0926279 0.508979 -0.0363534)
(0.0922312 0.508591 -0.0367413)
(0.0918301 0.508205 -0.037127)
(0.0914247 0.507822 -0.0375104)
(0.0910149 0.507441 -0.0378915)
(0.0906008 0.507062 -0.0382703)
(0.0901824 0.506685 -0.0386466)
(0.0897597 0.506311 -0.0390207)
(0.0893328 0.50594 -0.0393922)
(0.0889018 0.505571 -0.0397614)
(0.0884665 0.505204 -0.0401281)
(0.0880271 0.50484 -0.0404923)
(0.0875835 0.504478 -0.040854)
(0.0871359 0.504119 -0.0412132)
(0.0866842 0.503762 -0.0415698)
(0.0862285 0.503408 -0.0419239)
(0.0857688 0.503057 -0.0422754)
(0.0853051 0.502708 -0.0426242)
(0.0848374 0.502362 -0.0429704)
(0.0843659 0.502018 -0.0433139)
(0.0838904 0.501677 -0.0436548)
(0.0834111 0.501339 -0.0439929)
(0.082928 0.501004 -0.0443283)
(0.0824411 0.500671 -0.0446609)
(0.0819504 0.500341 -0.0449908)
(0.0814561 0.500014 -0.0453179)
(0.080958 0.49969 -0.0456422)
(0.0804562 0.499369 -0.0459636)
(0.0799508 0.49905 -0.0462821)
(0.0794418 0.498734 -0.0465978)
(0.0789293 0.498421 -0.0469106)
(0.0784132 0.498112 -0.0472205)
(0.0778936 0.497805 -0.0475274)
(0.0773705 0.497501 -0.0478314)
(0.076844 0.4972 -0.0481324)
(0.0763141 0.496902 -0.0484304)
(0.0757809 0.496607 -0.0487254)
(0.0752443 0.496315 -0.0490173)
(0.0747044 0.496026 -0.0493062)
(0.0741613 0.49574 -0.0495921)
(0.0736149 0.495457 -0.0498748)
(0.0730653 0.495178 -0.0501544)
(0.0725126 0.494901 -0.0504309)
(0.0719568 0.494628 -0.0507042)
(0.0713978 0.494358 -0.0509744)
(0.0708359 0.494091 -0.0512414)
(0.0702709 0.493827 -0.0515052)
(0.0697029 0.493566 -0.0517658)
(0.069132 0.493309 -0.0520231)
(0.0685582 0.493055 -0.0522772)
(0.0679815 0.492804 -0.0525281)
(0.067402 0.492557 -0.0527757)
(0.0668197 0.492312 -0.0530199)
(0.0662347 0.492071 -0.0532609)
(0.0656469 0.491834 -0.0534985)
(0.0650565 0.595414 0.0509946)
(0.0650565 0.594958 0.0514509)
(0.0650565 0.594501 0.0519073)
(0.0650565 0.594045 0.0523637)
(0.0650565 0.593588 0.05282)
(0.0650565 0.593132 0.0532764)
(0.0656469 0.592441 0.0534985)
(0.0662347 0.592204 0.0532609)
(0.0668197 0.591963 0.0530199)
(0.067402 0.591719 0.0527757)
(0.0679815 0.591471 0.0525281)
(0.0685582 0.59122 0.0522772)
(0.069132 0.590966 0.0520231)
(0.0697029 0.590709 0.0517658)
(0.0702709 0.590448 0.0515052)
(0.0708359 0.590184 0.0512414)
(0.0713978 0.589917 0.0509744)
(0.0719568 0.589647 0.0507042)
(0.0725126 0.589374 0.0504309)
(0.0730653 0.589097 0.0501544)
(0.0736149 0.588818 0.0498748)
(0.0741613 0.588535 0.0495921)
(0.0747044 0.588249 0.0493062)
(0.0752443 0.58796 0.0490173)
(0.0757809 0.587668 0.0487254)
(0.0763141 0.587373 0.0484304)
(0.076844 0.587075 0.0481324)
(0.0773705 0.586774 0.0478314)
(0.0778936 0.58647 0.0475274)
(0.0784132 0.586164 0.0472205)
(0.0789293 0.585854 0.0469106)
(0.0794418 0.585541 0.0465978)
(0.0799508 0.585225 0.0462821)
(0.0804562 0.584907 0.0459636)
(0.080958 0.584585 0.0456422)
(0.0814561 0.584261 0.0453179)
(0.0819504 0.583934 0.0449908)
(0.0824411 0.583604 0.0446609)
(0.082928 0.583271 0.0443283)
(0.0834111 0.582936 0.0439929)
(0.0838904 0.582598 0.0436548)
(0.0843659 0.582257 0.0433139)
(0.0848374 0.581913 0.0429704)
(0.0853051 0.581567 0.0426242)
(0.0857688 0.581218 0.0422754)
(0.0862285 0.580867 0.0419239)
(0.0866842 0.580513 0.0415698)
(0.0871359 0.580156 0.0412132)
(0.0875835 0.579797 0.040854)
(0.0880271 0.579435 0.0404923)
(0.0884665 0.579071 0.0401281)
(0.0889018 0.578704 0.0397614)
(0.0893328 0.578335 0.0393922)
(0.0897597 0.577964 0.0390207)
(0.0901824 0.57759 0.0386466)
(0.0906008 0.577213 0.0382703)
(0.0910149 0.576834 0.0378915)
(0.0914247 0.576453 0.0375104)
(0.0918301 0.57607 0.037127)
(0.0922312 0.575684 0.0367413)
(0.0926279 0.575296 0.0363534)
(0.0930202 0.574906 0.0359632)
(0.0934081 0.574514 0.0355708)
(0.0937914 0.574119 0.0351762)
(0.0941703 0.573722 0.0347794)
(0.0945447 0.573323 0.0343805)
(0.0949145 0.572923 0.0339795)
(0.0952798 0.572519 0.0335764)
(0.0956405 0.572114 0.0331713)
(0.0959966 0.571707 0.0327641)
(0.096348 0.571298 0.0323549)
(0.0966948 0.570887 0.0319437)
(0.0970369 0.570474 0.0315306)
(0.0973743 0.570059 0.0311155)
(0.097707 0.569641 0.0306985)
(0.0980349 0.569223 0.0302797)
(0.0983581 0.568802 0.029859)
(0.0986765 0.56838 0.0294365)
(0.0989901 0.567955 0.0290122)
(0.0992988 0.567529 0.0285862)
(0.0996027 0.567101 0.0281583)
(0.0999018 0.566672 0.0277288)
(0.100196 0.566241 0.0272976)
(0.100485 0.565808 0.0268648)
(0.100769 0.565373 0.0264303)
(0.101049 0.564937 0.0259942)
(0.101323 0.5645 0.0255566)
(0.101593 0.56406 0.0251174)
(0.101857 0.56362 0.0246767)
(0.102117 0.563178 0.0242345)
(0.102371 0.562734 0.0237908)
(0.102621 0.562289 0.0233457)
(0.102865 0.561842 0.0228993)
(0.103104 0.561394 0.0224514)
(0.103338 0.560945 0.0220022)
(0.103567 0.560495 0.0215517)
(0.103791 0.560043 0.0210999)
(0.10401 0.55959 0.0206468)
(0.104224 0.559135 0.0201926)
(0.104432 0.55868 0.0197371)
(0.104635 0.558223 0.0192804)
(0.104834 0.557766 0.0188226)
(0.105026 0.557307 0.0183637)
(0.105214 0.556847 0.0179038)
(0.105397 0.556386 0.0174427)
(0.105574 0.555924 0.0169807)
(0.105746 0.555461 0.0165176)
(0.105913 0.554997 0.0160536)
(0.106074 0.554532 0.0155887)
(0.10623 0.554066 0.0151229)
(0.106381 0.553599 0.0146561)
(0.106527 0.553132 0.0141886)
(0.106667 0.552663 0.0137202)
(0.106802 0.552194 0.0132511)
(0.106932 0.551724 0.0127812)
(0.107056 0.551254 0.0123106)
(0.107175 0.550782 0.0118393)
(0.107288 0.55031 0.0113673)
(0.107396 0.549838 0.0108948)
(0.107499 0.549365 0.0104216)
(0.107597 0.548891 0.00994781)
(0.107689 0.548416 0.00947352)
(0.107776 0.547942 0.00899872)
(0.107857 0.547466 0.00852344)
(0.107933 0.546991 0.00804771)
(0.108003 0.546515 0.00757157)
(0.108068 0.546038 0.00709505)
(0.108128 0.545561 0.00661817)
(0.108182 0.545084 0.00614096)
(0.108231 0.544607 0.00566347)
(0.108275 0.544129 0.00518571)
(0.108313 0.543651 0.00470772)
(0.108345 0.543172 0.00422953)
(0.108373 0.542694 0.00375117)
(0.108394 0.542216 0.00327268)
(0.10841 0.541737 0.00279407)
(0.108421 0.541258 0.00231539)
(0.108427 0.54078 0.00183666)
(0.108427 0.540301 0.00135792)
(0.108421 0.539822 0.000879187)
(0.10841 0.539343 0.000400505)
(0.108394 0.538865 -7.81001e-05)
(0.108373 0.538386 -0.000556597)
(0.108345 0.537908 -0.00103496)
(0.108313 0.53743 -0.00151315)
(0.108275 0.536952 -0.00199113)
(0.108231 0.536474 -0.00246889)
(0.108182 0.535997 -0.00294639)
(0.108128 0.535519 -0.00342359)
(0.108068 0.535043 -0.00390047)
(0.108003 0.534566 -0.00437699)
(0.107933 0.53409 -0.00485313)
(0.107857 0.533614 -0.00532886)
(0.107776 0.533139 -0.00580414)
(0.107689 0.532664 -0.00627894)
(0.107597 0.53219 -0.00675324)
(0.107499 0.531716 -0.00722699)
(0.107396 0.531243 -0.00770018)
(0.107288 0.53077 -0.00817277)
(0.107175 0.530298 -0.00864473)
(0.107056 0.529827 -0.00911603)
(0.106932 0.529356 -0.00958664)
(0.106802 0.528886 -0.0100565)
(0.106667 0.528417 -0.0105257)
(0.106527 0.527949 -0.010994)
(0.106381 0.527481 -0.0114616)
(0.10623 0.527015 -0.0119283)
(0.106074 0.526549 -0.0123941)
(0.105913 0.526084 -0.0128591)
(0.105746 0.52562 -0.013323)
(0.105574 0.525157 -0.0137861)
(0.105397 0.524695 -0.0142481)
(0.105214 0.524234 -0.0147092)
(0.105026 0.523774 -0.0151692)
(0.104834 0.523315 -0.015628)
(0.104635 0.522857 -0.0160858)
(0.104432 0.5224 -0.0165425)
(0.104224 0.521945 -0.016998)
(0.10401 0.521491 -0.0174522)
(0.103791 0.521038 -0.0179053)
(0.103567 0.520586 -0.0183571)
(0.103338 0.520135 -0.0188076)
(0.103104 0.519686 -0.0192568)
(0.102865 0.519238 -0.0197047)
(0.102621 0.518792 -0.0201512)
(0.102371 0.518347 -0.0205963)
(0.102117 0.517903 -0.0210399)
(0.101857 0.517461 -0.0214821)
(0.101593 0.51702 -0.0219228)
(0.101323 0.516581 -0.022362)
(0.101049 0.516143 -0.0227997)
(0.100769 0.515707 -0.0232357)
(0.100485 0.515273 -0.0236702)
(0.100196 0.51484 -0.0241031)
(0.0999018 0.514409 -0.0245343)
(0.0996027 0.513979 -0.0249638)
(0.0992988 0.513551 -0.0253916)
(0.0989901 0.513125 -0.0258176)
(0.0986765 0.512701 -0.0262419)
(0.0983581 0.512279 -0.0266645)
(0.0980349 0.511858 -0.0270851)
(0.097707 0.511439 -0.027504)
(0.0973743 0.511022 -0.0279209)
(0.0970369 0.510607 -0.028336)
(0.0966948 0.510194 -0.0287491)
(0.096348 0.509783 -0.0291603)
(0.0959966 0.509373 -0.0295695)
(0.0956405 0.508966 -0.0299767)
(0.0952798 0.508561 -0.0303818)
(0.0949145 0.508158 -0.0307849)
(0.0945447 0.507757 -0.0311859)
(0.0941703 0.507358 -0.0315848)
(0.0937914 0.506961 -0.0319816)
(0.0934081 0.506567 -0.0323762)
(0.0930202 0.506174 -0.0327686)
(0.0926279 0.505784 -0.0331588)
(0.0922312 0.505396 -0.0335467)
(0.0918301 0.505011 -0.0339324)
(0.0914247 0.504627 -0.0343158)
(0.0910149 0.504246 -0.0346969)
(0.0906008 0.503867 -0.0350757)
(0.0901824 0.503491 -0.0354521)
(0.0897597 0.503117 -0.0358261)
(0.0893328 0.502745 -0.0361977)
(0.0889018 0.502376 -0.0365668)
(0.0884665 0.50201 -0.0369335)
(0.0880271 0.501645 -0.0372977)
(0.0875835 0.501284 -0.0376595)
(0.0871359 0.500924 -0.0380186)
(0.0866842 0.500568 -0.0383753)
(0.0862285 0.500214 -0.0387293)
(0.0857688 0.499862 -0.0390808)
(0.0853051 0.499513 -0.0394296)
(0.0848374 0.499167 -0.0397758)
(0.0843659 0.498824 -0.0401193)
(0.0838904 0.498483 -0.0404602)
(0.0834111 0.498145 -0.0407983)
(0.082928 0.497809 -0.0411337)
(0.0824411 0.497477 -0.0414664)
(0.0819504 0.497147 -0.0417962)
(0.0814561 0.49682 -0.0421233)
(0.080958 0.496495 -0.0424476)
(0.0804562 0.496174 -0.042769)
(0.0799508 0.495855 -0.0430876)
(0.0794418 0.49554 -0.0434033)
(0.0789293 0.495227 -0.0437161)
(0.0784132 0.494917 -0.0440259)
(0.0778936 0.49461 -0.0443329)
(0.0773705 0.494306 -0.0446368)
(0.076844 0.494005 -0.0449378)
(0.0763141 0.493707 -0.0452358)
(0.0757809 0.493412 -0.0455308)
(0.0752443 0.49312 -0.0458228)
(0.0747044 0.492831 -0.0461117)
(0.0741613 0.492545 -0.0463975)
(0.0736149 0.492263 -0.0466802)
(0.0730653 0.491983 -0.0469598)
(0.0725126 0.491707 -0.0472363)
(0.0719568 0.491433 -0.0475097)
(0.0713978 0.491163 -0.0477798)
(0.0708359 0.490896 -0.0480468)
(0.0702709 0.490632 -0.0483106)
(0.0697029 0.490372 -0.0485712)
(0.069132 0.490114 -0.0488286)
(0.0685582 0.48986 -0.0490827)
(0.0679815 0.48961 -0.0493335)
(0.067402 0.489362 -0.0495811)
(0.0668197 0.489118 -0.0498253)
(0.0662347 0.488877 -0.0500663)
(0.0656469 0.488639 -0.0503039)
(0.0249324 0.559835 0.0208917)
(0.0252713 0.559423 0.0204805)
(0.0256018 0.559009 0.0200658)
(0.0259239 0.558591 0.0196478)
(0.0262378 0.55817 0.0192267)
(0.0265433 0.557746 0.0188026)
(0.0268407 0.557319 0.0183756)
(0.02713 0.556889 0.0179458)
(0.0274111 0.556456 0.0175133)
(0.0276843 0.556021 0.0170783)
(0.0279495 0.555584 0.0166408)
(0.0282067 0.555144 0.0162009)
(0.0284561 0.554702 0.0157588)
(0.0286976 0.554258 0.0153145)
(0.0289314 0.553811 0.0148682)
(0.0291574 0.553363 0.0144198)
(0.0293758 0.552913 0.0139696)
(0.0295865 0.55246 0.0135175)
(0.0297897 0.552007 0.0130637)