/*--------------------------------*- C++ -*----------------------------------*\
  =========                 |
  \\      /  F ield         | OpenFOAM: The Open Source CFD Toolbox
   \\    /   O peration     | Website:  https://openfoam.org
    \\  /    A nd           | Version:  10
     \\/     M anipulation  |
\*---------------------------------------------------------------------------*/
FoamFile
{
    format      ascii;
    class       polyBoundaryMesh;
    location    "constant/polyMesh";
    object      boundary;
}
// * * * * * * * * * * * * * * * * * * * * * * * * * * * * * * * * * * * * * //

8
(
    outlet
    {
        type            patch;
        nFaces          4274;
        startFace       2497710;
    }
    tankwall
    {
        type            wall;
        inGroups        List<word> 1(wall);
        nFaces          21866;
        startFace       2501984;
    }
    baffles
    {
        type            wall;
        inGroups        List<word> 1(wall);
        nFaces          25148;
        startFace       2523850;
    }
    sparger_lower
    {
        type            wall;
        inGroups        List<word> 1(wall);
        nFaces          912;
        startFace       2548998;
    }
    sparger_upper
    {
        type            patch;
        nFaces          304;
        startFace       2549910;
    }
    impeller
    {
        type            wall;
        inGroups        List<word> 1(wall);
        nFaces          3928;
        startFace       2550214;
    }
    blades
    {
        type            wall;
        inGroups        List<word> 1(wall);
        nFaces          11215;
        startFace       2554142;
    }
    shaft
    {
        type            wall;
        inGroups        List<word> 1(wall);
        nFaces          1504;
        startFace       2565357;
    }
)

// ************************************************************************* //
