/*--------------------------------*- C++ -*----------------------------------*\
  =========                 |
  \\      /  F ield         | OpenFOAM: The Open Source CFD Toolbox
   \\    /   O peration     | Website:  https://openfoam.org
    \\  /    A nd           | Version:  10
     \\/     M anipulation  |
\*---------------------------------------------------------------------------*/
FoamFile
{
    format      ascii;
    class       featureEdgeMesh;
    location    "constant/triSurface";
    object      MRF.eMesh;
}
// * * * * * * * * * * * * * * * * * * * * * * * * * * * * * * * * * * * * * //


// points:

14903
(
(-0.0604679 2.48752 -0.0173562)
(-0.0562663 2.46689 -0.0281372)
(0.00376562 2.56587 -0.0627967)
(0.0152031 2.54524 -0.0610448)
(-0.0562663 2.56587 0.0281372)
(0.0152031 2.48752 0.0610448)
(0.00376562 2.46689 0.0627967)
(-0.0604679 2.54524 0.0173562)
(0.0452649 2.48752 -0.0436886)
(0.0525007 2.46689 -0.0346595)
(0.0525007 2.56587 0.0346595)
(0.0452649 2.54524 0.0436886)
(0.0650086 2.2818 0.386213)
(-0.354133 2.76578 0.144221)
(-0.366974 2.75096 0.136807)
(0.0521673 2.26697 0.378799)
(-0.366974 2.2818 -0.136807)
(-0.354133 2.26697 -0.144221)
(0.0650086 2.75096 -0.386213)
(0.0521673 2.76578 -0.378799)
(0.301966 2.2818 -0.249405)
(0.301966 2.26697 -0.234578)
(0.301966 2.75096 0.249405)
(0.301966 2.76578 0.234578)
(-0.503167 0.905897 0.0104849)
(-0.503167 1.10721 0.0104849)
(-0.251419 1.10721 0.0104849)
(-0.251419 0.905897 0.0104849)
(-0.251419 1.10721 -0.0104849)
(-0.503167 1.10721 -0.0104849)
(-0.503167 0.905897 -0.0104849)
(-0.251419 0.905897 -0.0104849)
(-0.260664 1.10721 0.430513)
(-0.260664 0.905897 0.430513)
(-0.13479 0.905897 0.212493)
(-0.13479 1.10721 0.212493)
(-0.11663 1.10721 0.222978)
(-0.13479 0.905897 -0.212493)
(-0.260664 0.905897 -0.430513)
(-0.260664 1.10721 -0.430513)
(-0.13479 1.10721 -0.212493)
(-0.242503 0.905897 0.440998)
(-0.242503 1.10721 0.440998)
(-0.11663 0.905897 0.222978)
(-0.11663 1.10721 -0.222978)
(-0.11663 0.905897 -0.222978)
(-0.242503 1.10721 -0.440998)
(-0.242503 0.905897 -0.440998)
(0.242503 1.10721 0.440998)
(0.242503 0.905897 0.440998)
(0.11663 0.905897 0.222978)
(0.11663 1.10721 0.222978)
(0.13479 1.10721 0.212493)
(0.11663 0.905897 -0.222978)
(0.242503 0.905897 -0.440998)
(0.242503 1.10721 -0.440998)
(0.11663 1.10721 -0.222978)
(0.260664 0.905897 0.430513)
(0.260664 1.10721 0.430513)
(0.13479 0.905897 0.212493)
(0.13479 1.10721 -0.212493)
(0.13479 0.905897 -0.212493)
(0.260664 1.10721 -0.430513)
(0.260664 0.905897 -0.430513)
(0.251419 0.905897 0.0104849)
(0.251419 1.10721 0.0104849)
(0.503167 1.10721 0.0104849)
(0.503167 0.905897 0.0104849)
(0.251419 1.10721 -0.0104849)
(0.251419 0.905897 -0.0104849)
(0.503167 0.905897 -0.0104849)
(0.503167 1.10721 -0.0104849)
(0.0171238 2.41172 0.150009)
(0.0285612 2.43234 0.148257)
(-0.138473 2.62104 0.0601747)
(-0.142675 2.60041 0.0493937)
(-0.138473 2.41172 -0.0601747)
(-0.142675 2.43234 -0.0493937)
(0.0171238 2.62104 -0.150009)
(0.0285612 2.60041 -0.148257)
(0.121349 2.41172 -0.0898339)
(0.114114 2.43234 -0.0988631)
(0.121349 2.62104 0.0898339)
(0.114114 2.60041 0.0988631)
(-0.427656 1.01704 0.0104849)
(-0.251419 1.01704 0.0104849)
(-0.251419 1.01704 -0.0104849)
(-0.427656 1.01704 -0.0104849)
(-0.222908 1.01704 -0.365119)
(-0.13479 1.01704 -0.212493)
(-0.11663 1.01704 -0.222978)
(-0.204748 1.01704 -0.375603)
(0.204748 1.01704 -0.375603)
(0.11663 1.01704 -0.222978)
(0.13479 1.01704 -0.212493)
(0.222908 1.01704 -0.365119)
(0.427656 1.01704 -0.0104849)
(0.251419 1.01704 -0.0104849)
(0.251419 1.01704 0.0104849)
(0.427656 1.01704 0.0104849)
(0.222908 1.01704 0.365119)
(0.13479 1.01704 0.212493)
(0.11663 1.01704 0.222978)
(0.204748 1.01704 0.375603)
(-0.204748 1.01704 0.375603)
(-0.11663 1.01704 0.222978)
(-0.13479 1.01704 0.212493)
(-0.222908 1.01704 0.365119)
(-0.427656 0.996067 0.0104849)
(-0.251419 0.996067 0.0104849)
(-0.222908 0.996067 0.365119)
(-0.251419 0.996067 -0.0104849)
(-0.427656 0.996067 -0.0104849)
(-0.13479 0.996067 0.212493)
(-0.222908 0.996067 -0.365119)
(-0.13479 0.996067 -0.212493)
(-0.204748 0.996067 0.375603)
(-0.11663 0.996067 0.222978)
(0.204748 0.996067 0.375603)
(-0.11663 0.996067 -0.222978)
(-0.204748 0.996067 -0.375603)
(0.11663 0.996067 0.222978)
(0.204748 0.996067 -0.375603)
(0.11663 0.996067 -0.222978)
(0.222908 0.996067 0.365119)
(0.13479 0.996067 0.212493)
(0.427656 0.996067 0.0104849)
(0.13479 0.996067 -0.212493)
(0.222908 0.996067 -0.365119)
(0.251419 0.996067 0.0104849)
(0.427656 0.996067 -0.0104849)
(0.251419 0.996067 -0.0104849)
(-3.69801e-17 2.42606 0.150983)
(0.00211705 2.42423 0.150968)
(0.00424122 2.42242 0.150923)
(0.0063723 2.42061 0.150848)
(0.0085101 2.41881 0.150743)
(0.0106544 2.41702 0.150606)
(0.0128049 2.41524 0.150439)
(0.0149615 2.41348 0.15024)
(0.0185736 2.41429 0.149836)
(0.0200177 2.41686 0.14965)
(0.021456 2.41944 0.14945)
(0.0228885 2.42201 0.149238)
(0.0243153 2.42459 0.149012)
(0.0257363 2.42718 0.148773)
(0.0271516 2.42976 0.148521)
(0.0261453 2.43421 0.148702)
(0.0237347 2.4361 0.149106)
(0.0213297 2.438 0.149468)
(0.0189308 2.43992 0.149791)
(0.0165383 2.44185 0.150074)
(0.0141527 2.44379 0.150318)
(0.0117742 2.44575 0.150523)
(0.0094032 2.44772 0.15069)
(0.00703998 2.4497 0.150819)
(0.00468485 2.45169 0.15091)
(0.0023381 2.4537 0.150965)
(-3.69801e-17 2.45572 0.150983)
(-0.00236166 2.45777 0.150964)
(-0.00471387 2.45984 0.150909)
(-0.00705639 2.46191 0.150818)
(-0.00938895 2.46399 0.150691)
(-0.0117113 2.46609 0.150528)
(-0.0140233 2.46819 0.15033)
(-0.0163245 2.4703 0.150098)
(-0.018615 2.47241 0.149831)
(-0.0208943 2.47454 0.14953)
(-0.0231623 2.47667 0.149196)
(-0.0254188 2.47881 0.148828)
(-0.0276636 2.48095 0.148427)
(-0.0298965 2.4831 0.147993)
(-0.0321173 2.48526 0.147527)
(-0.0343259 2.48742 0.147029)
(-0.0365219 2.48959 0.146499)
(-0.0387053 2.49176 0.145937)
(-0.0408758 2.49394 0.145344)
(-0.0430332 2.49611 0.14472)
(-0.0451775 2.4983 0.144065)
(-0.0473084 2.50049 0.14338)
(-0.0494257 2.50268 0.142664)
(-0.0515292 2.50487 0.141917)
(-0.0536187 2.50707 0.141141)
(-0.0556942 2.50927 0.140335)
(-0.0577553 2.51148 0.1395)
(-0.0598019 2.51368 0.138635)
(-0.0618338 2.51589 0.13774)
(-0.0638509 2.5181 0.136817)
(-0.0658529 2.52031 0.135865)
(-0.0678397 2.52252 0.134884)
(-0.069811 2.52473 0.133874)
(-0.0717667 2.52694 0.132836)
(-0.0737066 2.52916 0.131769)
(-0.0756304 2.53137 0.130675)
(-0.077538 2.53358 0.129552)
(-0.0794291 2.53579 0.128401)
(-0.0813036 2.53801 0.127222)
(-0.0831612 2.54022 0.126016)
(-0.0850017 2.54243 0.124782)
(-0.0868249 2.54464 0.12352)
(-0.0886305 2.54685 0.122231)
(-0.0904184 2.54906 0.120914)
(-0.0921882 2.55126 0.119571)
(-0.0939398 2.55346 0.118199)
(-0.0956728 2.55566 0.116801)
(-0.097387 2.55786 0.115376)
(-0.0990823 2.56005 0.113923)
(-0.100758 2.56224 0.112444)
(-0.102415 2.56443 0.110937)
(-0.104051 2.56662 0.109404)
(-0.105667 2.5688 0.107844)
(-0.107263 2.57097 0.106256)
(-0.108838 2.57314 0.104643)
(-0.110392 2.57531 0.103002)
(-0.111925 2.57747 0.101334)
(-0.113435 2.57962 0.0996403)
(-0.114924 2.58177 0.0979195)
(-0.11639 2.58392 0.096172)
(-0.117834 2.58606 0.0943979)
(-0.119254 2.58819 0.0925971)
(-0.120651 2.59031 0.0907697)
(-0.122024 2.59243 0.0889157)
(-0.123372 2.59453 0.0870351)
(-0.124696 2.59663 0.0851279)
(-0.125994 2.59873 0.0831941)
(-0.127267 2.60081 0.0812338)
(-0.128514 2.60288 0.079247)
(-0.129733 2.60494 0.0772336)
(-0.130926 2.607 0.0751938)
(-0.132092 2.60904 0.0731274)
(-0.133229 2.61107 0.0710346)
(-0.134337 2.61309 0.0689154)
(-0.135416 2.6151 0.0667697)
(-0.136466 2.61709 0.0645977)
(-0.137485 2.61907 0.0623993)
(-0.139049 2.61847 0.0588328)
(-0.13961 2.6159 0.0574891)
(-0.140156 2.61332 0.0561438)
(-0.140688 2.61074 0.0547969)
(-0.141206 2.60817 0.0534483)
(-0.14171 2.60558 0.0520982)
(-0.142199 2.603 0.0507467)
(-0.141844 2.59853 0.0517317)
(-0.140979 2.59662 0.0540441)
(-0.140081 2.5947 0.0563307)
(-0.139151 2.59276 0.0585913)
(-0.138188 2.59081 0.060826)
(-0.137195 2.58885 0.0630346)
(-0.136171 2.58687 0.0652172)
(-0.135117 2.58488 0.0673736)
(-0.134034 2.58288 0.0695038)
(-0.132922 2.58086 0.0716078)
(-0.131781 2.57884 0.0736855)
(-0.130613 2.5768 0.075737)
(-0.129417 2.57475 0.0777622)
(-0.128195 2.57269 0.0797611)
(-0.126946 2.57062 0.0817337)
(-0.125672 2.56855 0.0836799)
(-0.124372 2.56646 0.0855997)
(-0.123048 2.56437 0.0874932)
(-0.121698 2.56227 0.0893603)
(-0.120325 2.56016 0.0912011)
(-0.118928 2.55804 0.0930154)
(-0.117508 2.55592 0.0948033)
(-0.116065 2.55379 0.0965647)
(-0.114599 2.55165 0.0982997)
(-0.113111 2.5495 0.100008)
(-0.111602 2.54736 0.10169)
(-0.11007 2.5452 0.103346)
(-0.108518 2.54304 0.104975)
(-0.106945 2.54088 0.106577)
(-0.105351 2.53871 0.108153)
(-0.103736 2.53654 0.109702)
(-0.102102 2.53436 0.111225)
(-0.100449 2.53218 0.11272)
(-0.0987756 2.53 0.114189)
(-0.0970834 2.52781 0.115631)
(-0.0953723 2.52562 0.117047)
(-0.0936426 2.52343 0.118435)
(-0.0918946 2.52124 0.119796)
(-0.0901285 2.51904 0.121131)
(-0.0883446 2.51684 0.122438)
(-0.086543 2.51464 0.123718)
(-0.084724 2.51244 0.124971)
(-0.082888 2.51024 0.126196)
(-0.0810349 2.50803 0.127394)
(-0.0791652 2.50583 0.128564)
(-0.0772789 2.50362 0.129707)
(-0.0753764 2.50142 0.130821)
(-0.0734577 2.49921 0.131908)
(-0.0715232 2.49701 0.132967)
(-0.069573 2.49481 0.133998)
(-0.0676073 2.4926 0.135)
(-0.0656263 2.4904 0.135974)
(-0.0636302 2.4882 0.13692)
(-0.0616191 2.486 0.137836)
(-0.0595933 2.4838 0.138724)
(-0.057553 2.4816 0.139583)
(-0.0554983 2.47941 0.140413)
(-0.0534294 2.47722 0.141213)
(-0.0513465 2.47503 0.141984)
(-0.0492498 2.47284 0.142724)
(-0.0471394 2.47066 0.143435)
(-0.0450156 2.46848 0.144116)
(-0.0428785 2.4663 0.144766)
(-0.0407282 2.46413 0.145386)
(-0.0385651 2.46196 0.145974)
(-0.0363892 2.4598 0.146532)
(-0.0342008 2.45764 0.147058)
(-0.0319999 2.45549 0.147553)
(-0.0297869 2.45334 0.148015)
(-0.0275619 2.4512 0.148446)
(-0.0253251 2.44906 0.148844)
(-0.0230766 2.44693 0.149209)
(-0.0208168 2.44481 0.149541)
(-0.0185457 2.44269 0.149839)
(-0.0162637 2.44058 0.150104)
(-0.0139709 2.43848 0.150335)
(-0.0116674 2.43639 0.150531)
(-0.0093537 2.43431 0.150693)
(-0.00702983 2.43223 0.150819)
(-0.0046961 2.43016 0.15091)
(-0.00235273 2.42811 0.150964)
(-0.139049 2.41429 -0.0588328)
(-0.13961 2.41686 -0.0574891)
(-0.140156 2.41944 -0.0561438)
(-0.140688 2.42201 -0.0547969)
(-0.141206 2.42459 -0.0534483)
(-0.14171 2.42718 -0.0520982)
(-0.142199 2.42976 -0.0507467)
(-0.141842 2.43424 -0.0517362)
(-0.140975 2.43615 -0.054053)
(-0.140076 2.43807 -0.0563439)
(-0.139143 2.44001 -0.0586087)
(-0.138179 2.44197 -0.0608475)
(-0.137183 2.44393 -0.0630601)
(-0.136157 2.44592 -0.0652466)
(-0.1351 2.44791 -0.0674068)
(-0.134015 2.44992 -0.0695407)
(-0.1329 2.45194 -0.0716482)
(-0.131756 2.45397 -0.0737295)
(-0.130585 2.45601 -0.0757844)
(-0.129387 2.45806 -0.0778128)
(-0.128162 2.46012 -0.0798149)
(-0.12691 2.4622 -0.0817905)
(-0.125632 2.46428 -0.0837397)
(-0.124329 2.46637 -0.0856625)
(-0.123001 2.46847 -0.0875587)
(-0.121648 2.47057 -0.0894285)
(-0.120272 2.47269 -0.0912718)
(-0.118871 2.47481 -0.0930886)
(-0.117447 2.47693 -0.0948788)
(-0.116 2.47907 -0.0966425)
(-0.11453 2.48121 -0.0983796)
(-0.113039 2.48336 -0.10009)
(-0.111525 2.48551 -0.101774)
(-0.10999 2.48767 -0.103432)
(-0.108433 2.48983 -0.105062)
(-0.106855 2.492 -0.106666)
(-0.105257 2.49417 -0.108244)
(-0.103639 2.49635 -0.109794)
(-0.102001 2.49853 -0.111318)
(-0.100342 2.50072 -0.112815)
(-0.0986648 2.5029 -0.114285)
(-0.096968 2.5051 -0.115728)
(-0.0952524 2.50729 -0.117144)
(-0.093518 2.50949 -0.118533)
(-0.0917653 2.51168 -0.119896)
(-0.0899945 2.51389 -0.12123)
(-0.0882057 2.51609 -0.122538)
(-0.0863993 2.51829 -0.123818)
(-0.0845754 2.5205 -0.125071)
(-0.0827344 2.52271 -0.126297)
(-0.0808764 2.52491 -0.127494)
(-0.0790016 2.52712 -0.128664)
(-0.0771102 2.52933 -0.129807)
(-0.0752025 2.53154 -0.130921)
(-0.0732787 2.53375 -0.132008)
(-0.071339 2.53596 -0.133066)
(-0.0693835 2.53817 -0.134096)
(-0.0674124 2.54038 -0.135098)
(-0.0654261 2.54258 -0.136071)
(-0.0634246 2.54479 -0.137015)
(-0.0614081 2.54699 -0.137931)
(-0.0593768 2.54919 -0.138817)
(-0.057331 2.55139 -0.139674)
(-0.0552708 2.55359 -0.140502)
(-0.0531963 2.55579 -0.141301)
(-0.0511078 2.55798 -0.14207)
(-0.0490054 2.56017 -0.142808)
(-0.0468894 2.56236 -0.143517)
(-0.0447599 2.56454 -0.144195)
(-0.042617 2.56672 -0.144843)
(-0.040461 2.5689 -0.14546)
(-0.0382921 2.57107 -0.146046)
(-0.0361104 2.57324 -0.146601)
(-0.0339161 2.5754 -0.147124)
(-0.0317094 2.57755 -0.147615)
(-0.0294905 2.5797 -0.148075)
(-0.0272595 2.58185 -0.148502)
(-0.0250168 2.58399 -0.148896)
(-0.0227624 2.58612 -0.149257)
(-0.0204966 2.58825 -0.149585)
(-0.0182196 2.59037 -0.149879)
(-0.0159316 2.59248 -0.15014)
(-0.0136327 2.59458 -0.150366)
(-0.0113233 2.59668 -0.150558)
(-0.00900353 2.59877 -0.150714)
(-0.00667365 2.60085 -0.150835)
(-0.0043339 2.60292 -0.150921)
(-0.00198452 2.60497 -0.15097)
(0.000374223 2.60702 -0.150982)
(0.00274206 2.60906 -0.150958)
(0.00511873 2.61109 -0.150896)
(0.00750392 2.6131 -0.150796)
(0.00989734 2.61511 -0.150658)
(0.0122987 2.6171 -0.150481)
(0.0147076 2.61908 -0.150265)
(0.0185736 2.61847 -0.149836)
(0.0200177 2.6159 -0.14965)
(0.021456 2.61332 -0.14945)
(0.0228885 2.61074 -0.149238)
(0.0243153 2.60817 -0.149012)
(0.0257363 2.60558 -0.148773)
(0.0271516 2.603 -0.148521)
(0.0261161 2.59852 -0.148707)
(0.0236764 2.59661 -0.149115)
(0.0212426 2.59469 -0.149481)
(0.0188149 2.59275 -0.149806)
(0.0163939 2.59079 -0.15009)
(0.0139799 2.58883 -0.150334)
(0.0115732 2.58684 -0.150539)
(0.00917426 2.58485 -0.150704)
(0.00678329 2.58284 -0.15083)
(0.00440064 2.58082 -0.150919)
(0.00202661 2.57879 -0.150969)
(-0.000338516 2.57675 -0.150982)
(-0.00269446 2.5747 -0.150959)
(-0.00504096 2.57264 -0.150899)
(-0.00737776 2.57056 -0.150802)
(-0.00970461 2.56848 -0.150671)
(-0.0120213 2.56639 -0.150504)
(-0.0143275 2.5643 -0.150301)
(-0.0166231 2.56219 -0.150065)
(-0.0189079 2.56007 -0.149794)
(-0.0211815 2.55795 -0.14949)
(-0.0234439 2.55582 -0.149152)
(-0.0256948 2.55369 -0.14878)
(-0.027934 2.55155 -0.148376)
(-0.0301613 2.5494 -0.14794)
(-0.0323766 2.54725 -0.147471)
(-0.0345795 2.54509 -0.14697)
(-0.03677 2.54293 -0.146437)
(-0.0389479 2.54076 -0.145873)
(-0.041113 2.53859 -0.145277)
(-0.043265 2.53641 -0.144651)
(-0.0454039 2.53423 -0.143994)
(-0.0475294 2.53204 -0.143306)
(-0.0496413 2.52986 -0.142589)
(-0.0517395 2.52766 -0.141841)
(-0.0538238 2.52547 -0.141063)
(-0.055894 2.52327 -0.140256)
(-0.0579499 2.52108 -0.139419)
(-0.0599913 2.51887 -0.138553)
(-0.0620181 2.51667 -0.137657)
(-0.0640301 2.51447 -0.136733)
(-0.0660271 2.51226 -0.13578)
(-0.0680088 2.51005 -0.134798)
(-0.0699752 2.50785 -0.133788)
(-0.071926 2.50564 -0.13275)
(-0.0738609 2.50343 -0.131683)
(-0.0757799 2.50122 -0.130588)
(-0.0776827 2.49901 -0.129465)
(-0.079569 2.4968 -0.128314)
(-0.0814388 2.49459 -0.127136)
(-0.0832917 2.49238 -0.12593)
(-0.0851276 2.49018 -0.124696)
(-0.0869462 2.48797 -0.123435)
(-0.0887474 2.48577 -0.122146)
(-0.0905307 2.48357 -0.12083)
(-0.0922961 2.48136 -0.119487)
(-0.0940433 2.47917 -0.118117)
(-0.0957721 2.47697 -0.11672)
(-0.0974821 2.47478 -0.115295)
(-0.0991731 2.47259 -0.113844)
(-0.100845 2.4704 -0.112366)
(-0.102497 2.46822 -0.110861)
(-0.10413 2.46604 -0.109329)
(-0.105742 2.46386 -0.10777)
(-0.107334 2.46169 -0.106185)
(-0.108905 2.45952 -0.104573)
(-0.110455 2.45736 -0.102934)
(-0.111984 2.4552 -0.101269)
(-0.113491 2.45305 -0.0995768)
(-0.114976 2.45091 -0.0978583)
(-0.116439 2.44877 -0.0961131)
(-0.117879 2.44664 -0.0943414)
(-0.119296 2.44451 -0.0925431)
(-0.12069 2.44239 -0.0907184)
(-0.122059 2.44028 -0.0888671)
(-0.123405 2.43817 -0.0869893)
(-0.124725 2.43608 -0.085085)
(-0.126021 2.43399 -0.0831543)
(-0.12729 2.43191 -0.0811972)
(-0.128534 2.42985 -0.0792136)
(-0.129751 2.42779 -0.0772035)
(-0.130942 2.42574 -0.0751671)
(-0.132104 2.4237 -0.0731042)
(-0.133239 2.42167 -0.0710151)
(-0.134345 2.41966 -0.0688995)
(-0.135422 2.41765 -0.0667577)
(-0.13647 2.41566 -0.0645896)
(-0.137487 2.41368 -0.0623952)
(0.120475 2.41429 -0.0910032)
(0.119592 2.41686 -0.0921608)
(0.1187 2.41944 -0.0933067)
(0.117799 2.42201 -0.0944409)
(0.11689 2.42459 -0.0955636)
(0.115973 2.42718 -0.0966749)
(0.115047 2.42976 -0.0977747)
(0.115726 2.43424 -0.0969707)
(0.117299 2.43615 -0.0950618)
(0.118833 2.43807 -0.0931371)
(0.120328 2.44001 -0.0911971)
(0.121785 2.44197 -0.0892426)
(0.123203 2.44393 -0.087274)
(0.124584 2.44592 -0.085292)
(0.125926 2.44791 -0.083297)
(0.127231 2.44992 -0.0812897)
(0.128499 2.45194 -0.0792704)
(0.12973 2.45397 -0.0772397)
(0.130924 2.45601 -0.075198)
(0.132081 2.45806 -0.0731459)
(0.133202 2.46012 -0.0710837)
(0.134288 2.4622 -0.0690119)
(0.135337 2.46428 -0.0669309)
(0.13635 2.46637 -0.064841)
(0.137329 2.46847 -0.0627427)
(0.138272 2.47057 -0.0606364)
(0.139179 2.47269 -0.0585224)
(0.140053 2.47481 -0.0564011)
(0.140891 2.47693 -0.0542728)
(0.141695 2.47907 -0.0521378)
(0.142465 2.48121 -0.0499965)
(0.1432 2.48336 -0.0478493)
(0.143901 2.48551 -0.0456964)
(0.144569 2.48767 -0.043538)
(0.145203 2.48983 -0.0413746)
(0.145803 2.492 -0.0392065)
(0.14637 2.49417 -0.0370338)
(0.146904 2.49635 -0.0348569)
(0.147404 2.49853 -0.0326761)
(0.147872 2.50072 -0.0304916)
(0.148306 2.5029 -0.0283037)
(0.148707 2.5051 -0.0261127)
(0.149076 2.50729 -0.0239188)
(0.149412 2.50949 -0.0217223)
(0.149715 2.51168 -0.0195234)
(0.149986 2.51389 -0.0173223)
(0.150224 2.51609 -0.0151194)
(0.150429 2.51829 -0.0129149)
(0.150603 2.5205 -0.0107089)
(0.150743 2.52271 -0.00850181)
(0.150852 2.52491 -0.00629379)
(0.150927 2.52712 -0.00408511)
(0.150971 2.52933 -0.00187598)
(0.150982 2.53154 0.000333343)
(0.150961 2.53375 0.00254263)
(0.150908 2.53596 0.00475165)
(0.150822 2.53817 0.00696016)
(0.150704 2.54038 0.00916792)
(0.150554 2.54258 0.0113747)
(0.150371 2.54479 0.0135802)
(0.150155 2.54699 0.0157843)
(0.149908 2.54919 0.0179867)
(0.149627 2.55139 0.0201871)
(0.149314 2.55359 0.0223853)
(0.148968 2.55579 0.0245811)
(0.14859 2.55798 0.0267742)
(0.148179 2.56017 0.0289643)
(0.147734 2.56236 0.0311512)
(0.147257 2.56454 0.0333346)
(0.146747 2.56672 0.0355143)
(0.146203 2.5689 0.0376899)
(0.145626 2.57107 0.0398612)
(0.145015 2.57324 0.042028)
(0.144371 2.5754 0.0441899)
(0.143693 2.57755 0.0463466)
(0.142982 2.5797 0.0484978)
(0.142236 2.58185 0.0506433)
(0.141456 2.58399 0.0527827)
(0.140642 2.58612 0.0549157)
(0.139793 2.58825 0.0570419)
(0.138909 2.59037 0.0591611)
(0.137991 2.59248 0.0612728)
(0.137037 2.59458 0.0633768)
(0.136048 2.59668 0.0654725)
(0.135024 2.59877 0.0675598)
(0.133964 2.60085 0.0696381)
(0.132868 2.60292 0.071707)
(0.131736 2.60497 0.0737662)
(0.130567 2.60702 0.0758153)
(0.129362 2.60906 0.0778536)
(0.12812 2.61109 0.0798809)
(0.126841 2.6131 0.0818967)
(0.125525 2.61511 0.0839004)
(0.124171 2.6171 0.0858915)
(0.122779 2.61908 0.0878695)
(0.120475 2.61847 0.0910032)
(0.119592 2.6159 0.0921608)
(0.1187 2.61332 0.0933067)
(0.117799 2.61074 0.0944409)
(0.11689 2.60817 0.0955636)
(0.115973 2.60558 0.0966749)
(0.115047 2.603 0.0977747)
(0.115726 2.59852 0.0969707)
(0.117299 2.59661 0.0950618)
(0.118833 2.59469 0.0931371)
(0.120328 2.59275 0.0911971)
(0.121785 2.59079 0.0892426)
(0.123203 2.58883 0.087274)
(0.124584 2.58684 0.085292)
(0.125926 2.58485 0.083297)
(0.127231 2.58284 0.0812897)
(0.128499 2.58082 0.0792704)
(0.12973 2.57879 0.0772397)
(0.130924 2.57675 0.075198)
(0.132081 2.5747 0.0731459)
(0.133202 2.57264 0.0710837)
(0.134288 2.57056 0.0690119)
(0.135337 2.56848 0.0669309)
(0.13635 2.56639 0.064841)
(0.137329 2.5643 0.0627427)
(0.138272 2.56219 0.0606364)
(0.139179 2.56007 0.0585224)
(0.140053 2.55795 0.0564011)
(0.140891 2.55582 0.0542728)
(0.141695 2.55369 0.0521378)
(0.142465 2.55155 0.0499965)
(0.1432 2.5494 0.0478493)
(0.143901 2.54725 0.0456964)
(0.144569 2.54509 0.043538)
(0.145203 2.54293 0.0413746)
(0.145803 2.54076 0.0392065)
(0.14637 2.53859 0.0370338)
(0.146904 2.53641 0.0348569)
(0.147404 2.53423 0.0326761)
(0.147872 2.53204 0.0304916)
(0.148306 2.52986 0.0283037)
(0.148707 2.52766 0.0261127)
(0.149076 2.52547 0.0239188)
(0.149412 2.52327 0.0217223)
(0.149715 2.52108 0.0195234)
(0.149986 2.51887 0.0173223)
(0.150224 2.51667 0.0151194)
(0.150429 2.51447 0.0129149)
(0.150603 2.51226 0.0107089)
(0.150743 2.51005 0.00850181)
(0.150852 2.50785 0.00629379)
(0.150927 2.50564 0.00408511)
(0.150971 2.50343 0.00187598)
(0.150982 2.50122 -0.000333343)
(0.150961 2.49901 -0.00254263)
(0.150908 2.4968 -0.00475165)
(0.150822 2.49459 -0.00696016)
(0.150704 2.49238 -0.00916792)
(0.150554 2.49018 -0.0113747)
(0.150371 2.48797 -0.0135802)
(0.150155 2.48577 -0.0157843)
(0.149908 2.48357 -0.0179867)
(0.149627 2.48136 -0.0201871)
(0.149314 2.47917 -0.0223853)
(0.148968 2.47697 -0.0245811)
(0.14859 2.47478 -0.0267742)
(0.148179 2.47259 -0.0289643)
(0.147734 2.4704 -0.0311512)
(0.147257 2.46822 -0.0333346)
(0.146747 2.46604 -0.0355143)
(0.146203 2.46386 -0.0376899)
(0.145626 2.46169 -0.0398612)
(0.145015 2.45952 -0.042028)
(0.144371 2.45736 -0.0441899)
(0.143693 2.4552 -0.0463466)
(0.142982 2.45305 -0.0484978)
(0.142236 2.45091 -0.0506433)
(0.141456 2.44877 -0.0527827)
(0.140642 2.44664 -0.0549157)
(0.139793 2.44451 -0.0570419)
(0.138909 2.44239 -0.0591611)
(0.137991 2.44028 -0.0612728)
(0.137037 2.43817 -0.0633768)
(0.136048 2.43608 -0.0654725)
(0.135024 2.43399 -0.0675598)
(0.133964 2.43191 -0.0696381)
(0.132868 2.42985 -0.071707)
(0.131736 2.42779 -0.0737662)
(0.130567 2.42574 -0.0758153)
(0.129362 2.4237 -0.0778536)
(0.12812 2.42167 -0.0798809)
(0.126841 2.41966 -0.0818967)
(0.125525 2.41765 -0.0839004)
(0.124171 2.41566 -0.0858915)
(0.122779 2.41368 -0.0878695)
(-0.424564 1.01704 0.0104849)
(-0.421472 1.01704 0.0104849)
(-0.41838 1.01704 0.0104849)
(-0.415289 1.01704 0.0104849)
(-0.412197 1.01704 0.0104849)
(-0.409105 1.01704 0.0104849)
(-0.406013 1.01704 0.0104849)
(-0.402921 1.01704 0.0104849)
(-0.399829 1.01704 0.0104849)
(-0.396737 1.01704 0.0104849)
(-0.393645 1.01704 0.0104849)
(-0.390554 1.01704 0.0104849)
(-0.387462 1.01704 0.0104849)
(-0.38437 1.01704 0.0104849)
(-0.381278 1.01704 0.0104849)
(-0.378186 1.01704 0.0104849)
(-0.375094 1.01704 0.0104849)
(-0.372002 1.01704 0.0104849)
(-0.36891 1.01704 0.0104849)
(-0.365819 1.01704 0.0104849)
(-0.362727 1.01704 0.0104849)
(-0.359635 1.01704 0.0104849)
(-0.356543 1.01704 0.0104849)
(-0.353451 1.01704 0.0104849)
(-0.350359 1.01704 0.0104849)
(-0.347267 1.01704 0.0104849)
(-0.344175 1.01704 0.0104849)
(-0.341084 1.01704 0.0104849)
(-0.337992 1.01704 0.0104849)
(-0.3349 1.01704 0.0104849)
(-0.331808 1.01704 0.0104849)
(-0.328716 1.01704 0.0104849)
(-0.325624 1.01704 0.0104849)
(-0.322533 1.01704 0.0104849)
(-0.319441 1.01704 0.0104849)
(-0.316349 1.01704 0.0104849)
(-0.313257 1.01704 0.0104849)
(-0.310165 1.01704 0.0104849)
(-0.307073 1.01704 0.0104849)
(-0.303981 1.01704 0.0104849)
(-0.300889 1.01704 0.0104849)
(-0.297798 1.01704 0.0104849)
(-0.294706 1.01704 0.0104849)
(-0.291614 1.01704 0.0104849)
(-0.288522 1.01704 0.0104849)
(-0.28543 1.01704 0.0104849)
(-0.282338 1.01704 0.0104849)
(-0.279246 1.01704 0.0104849)
(-0.276154 1.01704 0.0104849)
(-0.273062 1.01704 0.0104849)
(-0.269971 1.01704 0.0104849)
(-0.266879 1.01704 0.0104849)
(-0.263787 1.01704 0.0104849)
(-0.260695 1.01704 0.0104849)
(-0.257603 1.01704 0.0104849)
(-0.254511 1.01704 0.0104849)
(-0.251527 1.01704 0.00749029)
(-0.251598 1.01704 0.0044946)
(-0.251633 1.01704 0.00149827)
(-0.251633 1.01704 -0.00149827)
(-0.251598 1.01704 -0.0044946)
(-0.251527 1.01704 -0.00749029)
(-0.254511 1.01704 -0.0104849)
(-0.257603 1.01704 -0.0104849)
(-0.260695 1.01704 -0.0104849)
(-0.263787 1.01704 -0.0104849)
(-0.266879 1.01704 -0.0104849)
(-0.269971 1.01704 -0.0104849)
(-0.273062 1.01704 -0.0104849)
(-0.276154 1.01704 -0.0104849)
(-0.279246 1.01704 -0.0104849)
(-0.282338 1.01704 -0.0104849)
(-0.28543 1.01704 -0.0104849)
(-0.288522 1.01704 -0.0104849)
(-0.291614 1.01704 -0.0104849)
(-0.294706 1.01704 -0.0104849)
(-0.297798 1.01704 -0.0104849)
(-0.300889 1.01704 -0.0104849)
(-0.303981 1.01704 -0.0104849)
(-0.307073 1.01704 -0.0104849)
(-0.310165 1.01704 -0.0104849)
(-0.313257 1.01704 -0.0104849)
(-0.316349 1.01704 -0.0104849)
(-0.319441 1.01704 -0.0104849)
(-0.322533 1.01704 -0.0104849)
(-0.325624 1.01704 -0.0104849)
(-0.328716 1.01704 -0.0104849)
(-0.331808 1.01704 -0.0104849)
(-0.3349 1.01704 -0.0104849)
(-0.337992 1.01704 -0.0104849)
(-0.341084 1.01704 -0.0104849)
(-0.344175 1.01704 -0.0104849)
(-0.347267 1.01704 -0.0104849)
(-0.350359 1.01704 -0.0104849)
(-0.353451 1.01704 -0.0104849)
(-0.356543 1.01704 -0.0104849)
(-0.359635 1.01704 -0.0104849)
(-0.362727 1.01704 -0.0104849)
(-0.365819 1.01704 -0.0104849)
(-0.36891 1.01704 -0.0104849)
(-0.372002 1.01704 -0.0104849)
(-0.375094 1.01704 -0.0104849)
(-0.378186 1.01704 -0.0104849)
(-0.381278 1.01704 -0.0104849)
(-0.38437 1.01704 -0.0104849)
(-0.387462 1.01704 -0.0104849)
(-0.390554 1.01704 -0.0104849)
(-0.393645 1.01704 -0.0104849)
(-0.396737 1.01704 -0.0104849)
(-0.399829 1.01704 -0.0104849)
(-0.402921 1.01704 -0.0104849)
(-0.406013 1.01704 -0.0104849)
(-0.409105 1.01704 -0.0104849)
(-0.412197 1.01704 -0.0104849)
(-0.415289 1.01704 -0.0104849)
(-0.41838 1.01704 -0.0104849)
(-0.421472 1.01704 -0.0104849)
(-0.424564 1.01704 -0.0104849)
(-0.221362 1.01704 -0.362441)
(-0.219816 1.01704 -0.359763)
(-0.21827 1.01704 -0.357086)
(-0.216725 1.01704 -0.354408)
(-0.215179 1.01704 -0.35173)
(-0.213633 1.01704 -0.349053)
(-0.212087 1.01704 -0.346375)
(-0.210541 1.01704 -0.343697)
(-0.208995 1.01704 -0.34102)
(-0.207449 1.01704 -0.338342)
(-0.205903 1.01704 -0.335665)
(-0.204357 1.01704 -0.332987)
(-0.202811 1.01704 -0.330309)
(-0.201265 1.01704 -0.327632)
(-0.199719 1.01704 -0.324954)
(-0.198173 1.01704 -0.322276)
(-0.196627 1.01704 -0.319599)
(-0.195081 1.01704 -0.316921)
(-0.193536 1.01704 -0.314243)
(-0.191989 1.01704 -0.311566)
(-0.190444 1.01704 -0.308888)
(-0.188898 1.01704 -0.30621)
(-0.187352 1.01704 -0.303533)
(-0.185806 1.01704 -0.300855)
(-0.18426 1.01704 -0.298178)
(-0.182714 1.01704 -0.2955)
(-0.181168 1.01704 -0.292822)
(-0.179622 1.01704 -0.290145)
(-0.178076 1.01704 -0.287467)
(-0.17653 1.01704 -0.284789)
(-0.174984 1.01704 -0.282112)
(-0.173438 1.01704 -0.279434)
(-0.171892 1.01704 -0.276756)
(-0.170346 1.01704 -0.274079)
(-0.168801 1.01704 -0.271401)
(-0.167255 1.01704 -0.268724)
(-0.165709 1.01704 -0.266046)
(-0.164163 1.01704 -0.263368)
(-0.162617 1.01704 -0.260691)
(-0.161071 1.01704 -0.258013)
(-0.159525 1.01704 -0.255335)
(-0.157979 1.01704 -0.252658)
(-0.156433 1.01704 -0.24998)
(-0.154887 1.01704 -0.247303)
(-0.153341 1.01704 -0.244625)
(-0.151795 1.01704 -0.241947)
(-0.150249 1.01704 -0.239269)
(-0.148703 1.01704 -0.236592)
(-0.147157 1.01704 -0.233914)
(-0.145611 1.01704 -0.231237)
(-0.144065 1.01704 -0.228559)
(-0.14252 1.01704 -0.225881)
(-0.140974 1.01704 -0.223204)
(-0.139428 1.01704 -0.220526)
(-0.137882 1.01704 -0.217848)
(-0.136336 1.01704 -0.215171)
(-0.13225 1.01704 -0.214083)
(-0.129691 1.01704 -0.215643)
(-0.127114 1.01704 -0.217172)
(-0.124519 1.01704 -0.21867)
(-0.121906 1.01704 -0.220137)
(-0.119277 1.01704 -0.221574)
(-0.118175 1.01704 -0.225656)
(-0.119721 1.01704 -0.228333)
(-0.121267 1.01704 -0.231011)
(-0.122813 1.01704 -0.233689)
(-0.124359 1.01704 -0.236366)
(-0.125905 1.01704 -0.239044)
(-0.127451 1.01704 -0.241721)
(-0.128997 1.01704 -0.244399)
(-0.130543 1.01704 -0.247077)
(-0.132089 1.01704 -0.249755)
(-0.133635 1.01704 -0.252432)
(-0.135181 1.01704 -0.25511)
(-0.136727 1.01704 -0.257787)
(-0.138273 1.01704 -0.260465)
(-0.139819 1.01704 -0.263143)
(-0.141364 1.01704 -0.26582)
(-0.14291 1.01704 -0.268498)
(-0.144456 1.01704 -0.271176)
(-0.146002 1.01704 -0.273853)
(-0.147548 1.01704 -0.276531)
(-0.149094 1.01704 -0.279209)
(-0.15064 1.01704 -0.281886)
(-0.152186 1.01704 -0.284564)
(-0.153732 1.01704 -0.287241)
(-0.155278 1.01704 -0.289919)
(-0.156824 1.01704 -0.292597)
(-0.15837 1.01704 -0.295274)
(-0.159916 1.01704 -0.297952)
(-0.161462 1.01704 -0.30063)
(-0.163008 1.01704 -0.303307)
(-0.164553 1.01704 -0.305985)
(-0.166099 1.01704 -0.308663)
(-0.167645 1.01704 -0.31134)
(-0.169191 1.01704 -0.314018)
(-0.170737 1.01704 -0.316695)
(-0.172283 1.01704 -0.319373)
(-0.173829 1.01704 -0.322051)
(-0.175375 1.01704 -0.324728)
(-0.176921 1.01704 -0.327406)
(-0.178467 1.01704 -0.330084)
(-0.180013 1.01704 -0.332761)
(-0.181559 1.01704 -0.335439)
(-0.183105 1.01704 -0.338116)
(-0.184651 1.01704 -0.340794)
(-0.186197 1.01704 -0.343472)
(-0.187743 1.01704 -0.346149)
(-0.189288 1.01704 -0.348827)
(-0.190834 1.01704 -0.351505)
(-0.19238 1.01704 -0.354182)
(-0.193926 1.01704 -0.35686)
(-0.195472 1.01704 -0.359538)
(-0.197018 1.01704 -0.362215)
(-0.198564 1.01704 -0.364893)
(-0.20011 1.01704 -0.36757)
(-0.201656 1.01704 -0.370248)
(-0.203202 1.01704 -0.372926)
(0.203202 1.01704 -0.372926)
(0.201656 1.01704 -0.370248)
(0.20011 1.01704 -0.36757)
(0.198564 1.01704 -0.364893)
(0.197018 1.01704 -0.362215)
(0.195472 1.01704 -0.359538)
(0.193926 1.01704 -0.35686)
(0.19238 1.01704 -0.354182)
(0.190834 1.01704 -0.351505)
(0.189288 1.01704 -0.348827)
(0.187743 1.01704 -0.346149)
(0.186197 1.01704 -0.343472)
(0.184651 1.01704 -0.340794)
(0.183105 1.01704 -0.338116)
(0.181559 1.01704 -0.335439)
(0.180013 1.01704 -0.332761)
(0.178467 1.01704 -0.330084)
(0.176921 1.01704 -0.327406)
(0.175375 1.01704 -0.324728)
(0.173829 1.01704 -0.322051)
(0.172283 1.01704 -0.319373)
(0.170737 1.01704 -0.316695)
(0.169191 1.01704 -0.314018)
(0.167645 1.01704 -0.31134)
(0.166099 1.01704 -0.308663)
(0.164553 1.01704 -0.305985)
(0.163008 1.01704 -0.303307)
(0.161462 1.01704 -0.30063)
(0.159916 1.01704 -0.297952)
(0.15837 1.01704 -0.295274)
(0.156824 1.01704 -0.292597)
(0.155278 1.01704 -0.289919)
(0.153732 1.01704 -0.287241)
(0.152186 1.01704 -0.284564)
(0.15064 1.01704 -0.281886)
(0.149094 1.01704 -0.279209)
(0.147548 1.01704 -0.276531)
(0.146002 1.01704 -0.273853)
(0.144456 1.01704 -0.271176)
(0.14291 1.01704 -0.268498)
(0.141364 1.01704 -0.26582)
(0.139819 1.01704 -0.263143)
(0.138273 1.01704 -0.260465)
(0.136727 1.01704 -0.257787)
(0.135181 1.01704 -0.25511)
(0.133635 1.01704 -0.252432)
(0.132089 1.01704 -0.249755)