/*--------------------------------*- C++ -*----------------------------------*\
  =========                 |
  \\      /  F ield         | OpenFOAM: The Open Source CFD Toolbox
   \\    /   O peration     | Website:  https://openfoam.org
    \\  /    A nd           | Version:  10
     \\/     M anipulation  |
\*---------------------------------------------------------------------------*/
FoamFile
{
    format      ascii;
    class       featureEdgeMesh;
    location    "constant/triSurface";
    object      sparger_lower.eMesh;
}
// * * * * * * * * * * * * * * * * * * * * * * * * * * * * * * * * * * * * * //


// points:

3146
(
(-0.00314452 0.537499 0.359325)
(-8.80127e-17 0.537499 0.359339)
(0.00314452 0.537499 0.359325)
(0.0062888 0.537499 0.359284)
(0.0094326 0.537499 0.359215)
(0.0125757 0.537499 0.359119)
(0.0157178 0.537499 0.358995)
(0.0188587 0.537499 0.358844)
(0.0219982 0.537499 0.358665)
(0.0251359 0.537499 0.358459)
(0.0282718 0.537499 0.358225)
(0.0314055 0.537499 0.357964)
(0.0345368 0.537499 0.357675)
(0.0376654 0.537499 0.35736)
(0.0407912 0.537499 0.357016)
(0.0439138 0.537499 0.356646)
(0.047033 0.537499 0.356248)
(0.0501487 0.537499 0.355823)
(0.0532605 0.537499 0.35537)
(0.0563683 0.537499 0.35489)
(0.0594717 0.537499 0.354383)
(0.0625706 0.537499 0.35385)
(0.0656647 0.537499 0.353288)
(0.0687537 0.537499 0.3527)
(0.0718375 0.537499 0.352085)
(0.0749158 0.537499 0.351443)
(0.0779884 0.537499 0.350774)
(0.081055 0.537499 0.350078)
(0.0841153 0.537499 0.349355)
(0.0871693 0.537499 0.348606)
(0.0902165 0.537499 0.34783)
(0.0932569 0.537499 0.347027)
(0.0962901 0.537499 0.346198)
(0.0993159 0.537499 0.345342)
(0.102334 0.537499 0.344459)
(0.105344 0.537499 0.343551)
(0.108347 0.537499 0.342616)
(0.111341 0.537499 0.341654)
(0.114326 0.537499 0.340667)
(0.117303 0.537499 0.339653)
(0.120271 0.537499 0.338614)
(0.12323 0.537499 0.337549)
(0.126179 0.537499 0.336457)
(0.129118 0.537499 0.33534)
(0.132048 0.537499 0.334197)
(0.134967 0.537499 0.333029)
(0.137876 0.537499 0.331835)
(0.140775 0.537499 0.330616)
(0.143662 0.537499 0.329372)
(0.146539 0.537499 0.328102)
(0.149405 0.537499 0.326807)
(0.152259 0.537499 0.325487)
(0.155101 0.537499 0.324142)
(0.157932 0.537499 0.322772)
(0.16075 0.537499 0.321378)
(0.163557 0.537499 0.319959)
(0.16635 0.537499 0.318516)
(0.169131 0.537499 0.317048)
(0.171899 0.537499 0.315555)
(0.174654 0.537499 0.314039)
(0.177395 0.537499 0.312499)
(0.180123 0.537499 0.310934)
(0.182837 0.537499 0.309346)
(0.185537 0.537499 0.307734)
(0.188223 0.537499 0.306099)
(0.190894 0.537499 0.30444)
(0.193551 0.537499 0.302758)
(0.196193 0.537499 0.301053)
(0.19882 0.537499 0.299324)
(0.201432 0.537499 0.297573)
(0.204028 0.537499 0.295799)
(0.206609 0.537499 0.294002)
(0.209174 0.537499 0.292183)
(0.211723 0.537499 0.290341)
(0.214255 0.537499 0.288477)
(0.216771 0.537499 0.286591)
(0.219271 0.537499 0.284683)
(0.221754 0.537499 0.282754)
(0.22422 0.537499 0.280802)
(0.226669 0.537499 0.27883)
(0.2291 0.537499 0.276835)
(0.231514 0.537499 0.27482)
(0.23391 0.537499 0.272783)
(0.236288 0.537499 0.270726)
(0.238648 0.537499 0.268648)
(0.24099 0.537499 0.266549)
(0.243313 0.537499 0.26443)
(0.245617 0.537499 0.262291)
(0.247903 0.537499 0.260132)
(0.25017 0.537499 0.257952)
(0.252418 0.537499 0.255753)
(0.254646 0.537499 0.253535)
(0.256855 0.537499 0.251296)
(0.259044 0.537499 0.249039)
(0.261214 0.537499 0.246763)
(0.263363 0.537499 0.244467)
(0.265492 0.537499 0.242153)
(0.267601 0.537499 0.239821)
(0.26969 0.537499 0.23747)
(0.271757 0.537499 0.235101)
(0.273804 0.537499 0.232714)
(0.27583 0.537499 0.230309)
(0.277835 0.537499 0.227886)
(0.279819 0.537499 0.225446)
(0.281781 0.537499 0.222989)
(0.283721 0.537499 0.220515)
(0.28564 0.537499 0.218023)
(0.287537 0.537499 0.215515)
(0.289412 0.537499 0.212991)
(0.291265 0.537499 0.21045)
(0.293095 0.537499 0.207893)
(0.294903 0.537499 0.205321)
(0.296689 0.537499 0.202732)
(0.298452 0.537499 0.200128)
(0.300191 0.537499 0.197509)
(0.301908 0.537499 0.194874)
(0.303602 0.537499 0.192225)
(0.305272 0.537499 0.189561)
(0.30692 0.537499 0.186882)
(0.308543 0.537499 0.184189)
(0.310143 0.537499 0.181482)
(0.31172 0.537499 0.178761)
(0.313272 0.537499 0.176026)
(0.3148 0.537499 0.173278)
(0.316305 0.537499 0.170517)
(0.317785 0.537499 0.167742)
(0.31924 0.537499 0.164955)
(0.320672 0.537499 0.162155)
(0.322078 0.537499 0.159343)
(0.32346 0.537499 0.156518)
(0.324818 0.537499 0.153682)
(0.32615 0.537499 0.150833)
(0.327457 0.537499 0.147973)
(0.32874 0.537499 0.145102)
(0.329997 0.537499 0.14222)
(0.331229 0.537499 0.139327)
(0.332435 0.537499 0.136423)
(0.333616 0.537499 0.133509)
(0.334772 0.537499 0.130584)
(0.335902 0.537499 0.12765)
(0.337006 0.537499 0.124705)
(0.338084 0.537499 0.121751)
(0.339137 0.537499 0.118788)
(0.340163 0.537499 0.115816)
(0.341164 0.537499 0.112835)
(0.342138 0.537499 0.109845)
(0.343086 0.537499 0.106847)
(0.344008 0.537499 0.10384)
(0.344904 0.537499 0.100826)
(0.345773 0.537499 0.0978039)
(0.346616 0.537499 0.0947744)
(0.347432 0.537499 0.0917376)
(0.348221 0.537499 0.0886938)
(0.348984 0.537499 0.0856431)
(0.34972 0.537499 0.0825859)
(0.350429 0.537499 0.0795224)
(0.351112 0.537499 0.0764528)
(0.351767 0.537499 0.0733774)
(0.352396 0.537499 0.0702963)
(0.352998 0.537499 0.0672099)
(0.353572 0.537499 0.0641183)
(0.35412 0.537499 0.0610217)
(0.35464 0.537499 0.0579206)
(0.355134 0.537499 0.0548149)
(0.3556 0.537499 0.0517051)
(0.356039 0.537499 0.0485913)
(0.35645 0.537499 0.0454739)
(0.356834 0.537499 0.0423529)
(0.357191 0.537499 0.0392287)
(0.357521 0.537499 0.0361014)
(0.357823 0.537499 0.0329714)
(0.358098 0.537499 0.0298389)
(0.358345 0.537499 0.0267041)
(0.358565 0.537499 0.0235673)
(0.358758 0.537499 0.0204286)
(0.358923 0.537499 0.0172884)
(0.35906 0.537499 0.0141469)
(0.35917 0.537499 0.0110042)
(0.359253 0.537499 0.00786077)
(0.359308 0.537499 0.0047167)
(0.359336 0.537499 0.00157227)
(0.359336 0.537499 -0.00157227)
(0.359308 0.537499 -0.0047167)
(0.359253 0.537499 -0.00786077)
(0.35917 0.537499 -0.0110042)
(0.35906 0.537499 -0.0141469)
(0.358923 0.537499 -0.0172884)
(0.358758 0.537499 -0.0204286)
(0.358565 0.537499 -0.0235673)
(0.358345 0.537499 -0.0267041)
(0.358098 0.537499 -0.0298389)
(0.357823 0.537499 -0.0329714)
(0.357521 0.537499 -0.0361014)
(0.357191 0.537499 -0.0392287)
(0.356834 0.537499 -0.0423529)
(0.35645 0.537499 -0.0454739)
(0.356039 0.537499 -0.0485913)
(0.3556 0.537499 -0.0517051)
(0.355134 0.537499 -0.0548149)
(0.35464 0.537499 -0.0579206)
(0.35412 0.537499 -0.0610217)
(0.353572 0.537499 -0.0641183)
(0.352998 0.537499 -0.0672099)
(0.352396 0.537499 -0.0702963)
(0.351767 0.537499 -0.0733774)
(0.351112 0.537499 -0.0764528)
(0.350429 0.537499 -0.0795224)
(0.34972 0.537499 -0.0825859)
(0.348984 0.537499 -0.0856431)
(0.348221 0.537499 -0.0886938)
(0.347432 0.537499 -0.0917376)
(0.346616 0.537499 -0.0947744)
(0.345773 0.537499 -0.0978039)
(0.344904 0.537499 -0.100826)
(0.344008 0.537499 -0.10384)
(0.343086 0.537499 -0.106847)
(0.342138 0.537499 -0.109845)
(0.341164 0.537499 -0.112835)
(0.340163 0.537499 -0.115816)
(0.339137 0.537499 -0.118788)
(0.338084 0.537499 -0.121751)
(0.337006 0.537499 -0.124705)
(0.335902 0.537499 -0.12765)
(0.334772 0.537499 -0.130584)
(0.333616 0.537499 -0.133509)
(0.332435 0.537499 -0.136423)
(0.331229 0.537499 -0.139327)
(0.329997 0.537499 -0.14222)
(0.32874 0.537499 -0.145102)
(0.327457 0.537499 -0.147973)
(0.32615 0.537499 -0.150833)
(0.324818 0.537499 -0.153682)
(0.32346 0.537499 -0.156518)
(0.322078 0.537499 -0.159343)
(0.320672 0.537499 -0.162155)
(0.31924 0.537499 -0.164955)
(0.317785 0.537499 -0.167742)
(0.316305 0.537499 -0.170517)
(0.3148 0.537499 -0.173278)
(0.313272 0.537499 -0.176026)
(0.31172 0.537499 -0.178761)
(0.310143 0.537499 -0.181482)
(0.308543 0.537499 -0.184189)
(0.30692 0.537499 -0.186882)
(0.305272 0.537499 -0.189561)
(0.303602 0.537499 -0.192225)
(0.301908 0.537499 -0.194874)
(0.300191 0.537499 -0.197509)
(0.298452 0.537499 -0.200128)
(0.296689 0.537499 -0.202732)
(0.294903 0.537499 -0.205321)
(0.293095 0.537499 -0.207893)
(0.291265 0.537499 -0.21045)
(0.289412 0.537499 -0.212991)
(0.287537 0.537499 -0.215515)
(0.28564 0.537499 -0.218023)
(0.283721 0.537499 -0.220515)
(0.281781 0.537499 -0.222989)
(0.279819 0.537499 -0.225446)
(0.277835 0.537499 -0.227886)
(0.27583 0.537499 -0.230309)
(0.273804 0.537499 -0.232714)
(0.271757 0.537499 -0.235101)
(0.26969 0.537499 -0.23747)
(0.267601 0.537499 -0.239821)
(0.265492 0.537499 -0.242153)
(0.263363 0.537499 -0.244467)
(0.261214 0.537499 -0.246763)
(0.259044 0.537499 -0.249039)
(0.256855 0.537499 -0.251296)
(0.254646 0.537499 -0.253535)
(0.252418 0.537499 -0.255753)
(0.25017 0.537499 -0.257952)
(0.247903 0.537499 -0.260132)
(0.245617 0.537499 -0.262291)
(0.243313 0.537499 -0.26443)
(0.24099 0.537499 -0.266549)
(0.238648 0.537499 -0.268648)
(0.236288 0.537499 -0.270726)
(0.23391 0.537499 -0.272783)
(0.231514 0.537499 -0.27482)
(0.2291 0.537499 -0.276835)
(0.226669 0.537499 -0.27883)
(0.22422 0.537499 -0.280802)
(0.221754 0.537499 -0.282754)
(0.219271 0.537499 -0.284683)
(0.216771 0.537499 -0.286591)
(0.214255 0.537499 -0.288477)
(0.211723 0.537499 -0.290341)
(0.209174 0.537499 -0.292183)
(0.206609 0.537499 -0.294002)
(0.204028 0.537499 -0.295799)
(0.201432 0.537499 -0.297573)
(0.19882 0.537499 -0.299324)
(0.196193 0.537499 -0.301053)
(0.193551 0.537499 -0.302758)
(0.190894 0.537499 -0.30444)
(0.188223 0.537499 -0.306099)
(0.185537 0.537499 -0.307734)
(0.182837 0.537499 -0.309346)
(0.180123 0.537499 -0.310934)
(0.177395 0.537499 -0.312499)
(0.174654 0.537499 -0.314039)
(0.171899 0.537499 -0.315555)
(0.169131 0.537499 -0.317048)
(0.16635 0.537499 -0.318516)
(0.163557 0.537499 -0.319959)
(0.16075 0.537499 -0.321378)
(0.157932 0.537499 -0.322772)
(0.155101 0.537499 -0.324142)
(0.152259 0.537499 -0.325487)
(0.149405 0.537499 -0.326807)
(0.146539 0.537499 -0.328102)
(0.143662 0.537499 -0.329372)
(0.140775 0.537499 -0.330616)
(0.137876 0.537499 -0.331835)
(0.134967 0.537499 -0.333029)
(0.132048 0.537499 -0.334197)
(0.129118 0.537499 -0.33534)
(0.126179 0.537499 -0.336457)
(0.12323 0.537499 -0.337549)
(0.120271 0.537499 -0.338614)
(0.117303 0.537499 -0.339653)
(0.114326 0.537499 -0.340667)
(0.111341 0.537499 -0.341654)
(0.108347 0.537499 -0.342616)
(0.105344 0.537499 -0.343551)
(0.102334 0.537499 -0.344459)
(0.0993159 0.537499 -0.345342)
(0.0962901 0.537499 -0.346198)
(0.0932569 0.537499 -0.347027)
(0.0902165 0.537499 -0.34783)
(0.0871693 0.537499 -0.348606)
(0.0841153 0.537499 -0.349355)
(0.081055 0.537499 -0.350078)
(0.0779884 0.537499 -0.350774)
(0.0749158 0.537499 -0.351443)
(0.0718375 0.537499 -0.352085)
(0.0687537 0.537499 -0.3527)
(0.0656647 0.537499 -0.353288)
(0.0625706 0.537499 -0.35385)
(0.0594717 0.537499 -0.354383)
(0.0563683 0.537499 -0.35489)
(0.0532605 0.537499 -0.35537)
(0.0501487 0.537499 -0.355823)
(0.047033 0.537499 -0.356248)
(0.0439138 0.537499 -0.356646)
(0.0407912 0.537499 -0.357016)
(0.0376654 0.537499 -0.35736)
(0.0345368 0.537499 -0.357675)
(0.0314055 0.537499 -0.357964)
(0.0282718 0.537499 -0.358225)
(0.0251359 0.537499 -0.358459)
(0.0219982 0.537499 -0.358665)
(0.0188587 0.537499 -0.358844)
(0.0157178 0.537499 -0.358995)
(0.0125757 0.537499 -0.359119)
(0.0094326 0.537499 -0.359215)
(0.0062888 0.537499 -0.359284)
(0.00314452 0.537499 -0.359325)
(8.66125e-15 0.537499 -0.359339)
(-0.00314452 0.537499 -0.359325)
(-0.0062888 0.537499 -0.359284)
(-0.0094326 0.537499 -0.359215)
(-0.0125757 0.537499 -0.359119)
(-0.0157178 0.537499 -0.358995)
(-0.0188587 0.537499 -0.358844)
(-0.0219982 0.537499 -0.358665)
(-0.0251359 0.537499 -0.358459)
(-0.0282718 0.537499 -0.358225)
(-0.0314055 0.537499 -0.357964)
(-0.0345368 0.537499 -0.357675)
(-0.0376654 0.537499 -0.35736)
(-0.0407912 0.537499 -0.357016)
(-0.0439138 0.537499 -0.356646)
(-0.047033 0.537499 -0.356248)
(-0.0501487 0.537499 -0.355823)
(-0.0532605 0.537499 -0.35537)
(-0.0563683 0.537499 -0.35489)
(-0.0594717 0.537499 -0.354383)
(-0.0625706 0.537499 -0.35385)
(-0.0656647 0.537499 -0.353288)
(-0.0687537 0.537499 -0.3527)
(-0.0718375 0.537499 -0.352085)
(-0.0749158 0.537499 -0.351443)
(-0.0779884 0.537499 -0.350774)
(-0.081055 0.537499 -0.350078)
(-0.0841153 0.537499 -0.349355)
(-0.0871693 0.537499 -0.348606)
(-0.0902165 0.537499 -0.34783)
(-0.0932569 0.537499 -0.347027)
(-0.0962901 0.537499 -0.346198)
(-0.0993159 0.537499 -0.345342)
(-0.102334 0.537499 -0.344459)
(-0.105344 0.537499 -0.343551)
(-0.108347 0.537499 -0.342616)
(-0.111341 0.537499 -0.341654)
(-0.114326 0.537499 -0.340667)
(-0.117303 0.537499 -0.339653)
(-0.120271 0.537499 -0.338614)
(-0.12323 0.537499 -0.337549)
(-0.126179 0.537499 -0.336457)
(-0.129118 0.537499 -0.33534)
(-0.132048 0.537499 -0.334197)
(-0.134967 0.537499 -0.333029)
(-0.137876 0.537499 -0.331835)
(-0.140775 0.537499 -0.330616)
(-0.143662 0.537499 -0.329372)
(-0.146539 0.537499 -0.328102)
(-0.149405 0.537499 -0.326807)
(-0.152259 0.537499 -0.325487)
(-0.155101 0.537499 -0.324142)
(-0.157932 0.537499 -0.322772)
(-0.16075 0.537499 -0.321378)
(-0.163557 0.537499 -0.319959)
(-0.16635 0.537499 -0.318516)
(-0.169131 0.537499 -0.317048)
(-0.171899 0.537499 -0.315555)
(-0.174654 0.537499 -0.314039)
(-0.177395 0.537499 -0.312499)
(-0.180123 0.537499 -0.310934)
(-0.182837 0.537499 -0.309346)
(-0.185537 0.537499 -0.307734)
(-0.188223 0.537499 -0.306099)
(-0.190894 0.537499 -0.30444)
(-0.193551 0.537499 -0.302758)
(-0.196193 0.537499 -0.301053)
(-0.19882 0.537499 -0.299324)
(-0.201432 0.537499 -0.297573)
(-0.204028 0.537499 -0.295799)
(-0.206609 0.537499 -0.294002)
(-0.209174 0.537499 -0.292183)
(-0.211723 0.537499 -0.290341)
(-0.214255 0.537499 -0.288477)
(-0.216771 0.537499 -0.286591)
(-0.219271 0.537499 -0.284683)
(-0.221754 0.537499 -0.282754)
(-0.22422 0.537499 -0.280802)
(-0.226669 0.537499 -0.27883)
(-0.2291 0.537499 -0.276835)
(-0.231514 0.537499 -0.27482)
(-0.23391 0.537499 -0.272783)
(-0.236288 0.537499 -0.270726)
(-0.238648 0.537499 -0.268648)
(-0.24099 0.537499 -0.266549)
(-0.243313 0.537499 -0.26443)
(-0.245617 0.537499 -0.262291)
(-0.247903 0.537499 -0.260132)
(-0.25017 0.537499 -0.257952)
(-0.252418 0.537499 -0.255753)
(-0.254646 0.537499 -0.253535)
(-0.256855 0.537499 -0.251296)
(-0.259044 0.537499 -0.249039)
(-0.261214 0.537499 -0.246763)
(-0.263363 0.537499 -0.244467)
(-0.265492 0.537499 -0.242153)
(-0.267601 0.537499 -0.239821)
(-0.26969 0.537499 -0.23747)
(-0.271757 0.537499 -0.235101)
(-0.273804 0.537499 -0.232714)
(-0.27583 0.537499 -0.230309)
(-0.277835 0.537499 -0.227886)
(-0.279819 0.537499 -0.225446)
(-0.281781 0.537499 -0.222989)
(-0.283721 0.537499 -0.220515)
(-0.28564 0.537499 -0.218023)
(-0.287537 0.537499 -0.215515)
(-0.289412 0.537499 -0.212991)
(-0.291265 0.537499 -0.21045)
(-0.293095 0.537499 -0.207893)
(-0.294903 0.537499 -0.205321)
(-0.296689 0.537499 -0.202732)
(-0.298452 0.537499 -0.200128)
(-0.300191 0.537499 -0.197509)
(-0.301908 0.537499 -0.194874)
(-0.303602 0.537499 -0.192225)
(-0.305272 0.537499 -0.189561)
(-0.30692 0.537499 -0.186882)
(-0.308543 0.537499 -0.184189)
(-0.310143 0.537499 -0.181482)
(-0.31172 0.537499 -0.178761)
(-0.313272 0.537499 -0.176026)
(-0.3148 0.537499 -0.173278)
(-0.316305 0.537499 -0.170517)
(-0.317785 0.537499 -0.167742)
(-0.31924 0.537499 -0.164955)
(-0.320672 0.537499 -0.162155)
(-0.322078 0.537499 -0.159343)
(-0.32346 0.537499 -0.156518)
(-0.324818 0.537499 -0.153682)
(-0.32615 0.537499 -0.150833)
(-0.327457 0.537499 -0.147973)
(-0.32874 0.537499 -0.145102)
(-0.329997 0.537499 -0.14222)
(-0.331229 0.537499 -0.139327)
(-0.332435 0.537499 -0.136423)
(-0.333616 0.537499 -0.133509)
(-0.334772 0.537499 -0.130584)
(-0.335902 0.537499 -0.12765)
(-0.337006 0.537499 -0.124705)
(-0.338084 0.537499 -0.121751)
(-0.339137 0.537499 -0.118788)
(-0.340163 0.537499 -0.115816)
(-0.341164 0.537499 -0.112835)
(-0.342138 0.537499 -0.109845)
(-0.343086 0.537499 -0.106847)
(-0.344008 0.537499 -0.10384)
(-0.344904 0.537499 -0.100826)
(-0.345773 0.537499 -0.0978039)
(-0.346616 0.537499 -0.0947744)
(-0.347432 0.537499 -0.0917376)
(-0.348221 0.537499 -0.0886938)
(-0.348984 0.537499 -0.0856431)
(-0.34972 0.537499 -0.0825859)
(-0.350429 0.537499 -0.0795224)
(-0.351112 0.537499 -0.0764528)
(-0.351767 0.537499 -0.0733774)
(-0.352396 0.537499 -0.0702963)
(-0.352998 0.537499 -0.0672099)
(-0.353572 0.537499 -0.0641183)
(-0.35412 0.537499 -0.0610217)
(-0.35464 0.537499 -0.0579206)
(-0.355134 0.537499 -0.0548149)
(-0.3556 0.537499 -0.0517051)
(-0.356039 0.537499 -0.0485913)
(-0.35645 0.537499 -0.0454739)
(-0.356834 0.537499 -0.0423529)
(-0.357191 0.537499 -0.0392287)
(-0.357521 0.537499 -0.0361014)
(-0.357823 0.537499 -0.0329714)
(-0.358098 0.537499 -0.0298389)
(-0.358345 0.537499 -0.0267041)
(-0.358565 0.537499 -0.0235673)
(-0.358758 0.537499 -0.0204286)
(-0.358923 0.537499 -0.0172884)
(-0.35906 0.537499 -0.0141469)
(-0.35917 0.537499 -0.0110042)
(-0.359253 0.537499 -0.00786077)
(-0.359308 0.537499 -0.0047167)
(-0.359336 0.537499 -0.00157227)
(-0.359336 0.537499 0.00157227)
(-0.359308 0.537499 0.0047167)
(-0.359253 0.537499 0.00786077)
(-0.35917 0.537499 0.0110042)
(-0.35906 0.537499 0.0141469)
(-0.358923 0.537499 0.0172884)
(-0.358758 0.537499 0.0204286)
(-0.358565 0.537499 0.0235673)
(-0.358345 0.537499 0.0267041)
(-0.358098 0.537499 0.0298389)
(-0.357823 0.537499 0.0329714)
(-0.357521 0.537499 0.0361014)
(-0.357191 0.537499 0.0392287)
(-0.356834 0.537499 0.0423529)
(-0.35645 0.537499 0.0454739)
(-0.356039 0.537499 0.0485913)
(-0.3556 0.537499 0.0517051)
(-0.355134 0.537499 0.0548149)
(-0.35464 0.537499 0.0579206)
(-0.35412 0.537499 0.0610217)
(-0.353572 0.537499 0.0641183)
(-0.352998 0.537499 0.0672099)
(-0.352396 0.537499 0.0702963)
(-0.351767 0.537499 0.0733774)
(-0.351112 0.537499 0.0764528)
(-0.350429 0.537499 0.0795224)
(-0.34972 0.537499 0.0825859)
(-0.348984 0.537499 0.0856431)
(-0.348221 0.537499 0.0886938)
(-0.347432 0.537499 0.0917376)
(-0.346616 0.537499 0.0947744)
(-0.345773 0.537499 0.0978039)
(-0.344904 0.537499 0.100826)
(-0.344008 0.537499 0.10384)
(-0.343086 0.537499 0.106847)
(-0.342138 0.537499 0.109845)
(-0.341164 0.537499 0.112835)
(-0.340163 0.537499 0.115816)
(-0.339137 0.537499 0.118788)
(-0.338084 0.537499 0.121751)
(-0.337006 0.537499 0.124705)
(-0.335902 0.537499 0.12765)
(-0.334772 0.537499 0.130584)
(-0.333616 0.537499 0.133509)
(-0.332435 0.537499 0.136423)
(-0.331229 0.537499 0.139327)
(-0.329997 0.537499 0.14222)
(-0.32874 0.537499 0.145102)
(-0.327457 0.537499 0.147973)
(-0.32615 0.537499 0.150833)
(-0.324818 0.537499 0.153682)
(-0.32346 0.537499 0.156518)
(-0.322078 0.537499 0.159343)
(-0.320672 0.537499 0.162155)
(-0.31924 0.537499 0.164955)
(-0.317785 0.537499 0.167742)
(-0.316305 0.537499 0.170517)
(-0.3148 0.537499 0.173278)
(-0.313272 0.537499 0.176026)
(-0.31172 0.537499 0.178761)
(-0.310143 0.537499 0.181482)
(-0.308543 0.537499 0.184189)
(-0.30692 0.537499 0.186882)
(-0.305272 0.537499 0.189561)
(-0.303602 0.537499 0.192225)
(-0.301908 0.537499 0.194874)
(-0.300191 0.537499 0.197509)
(-0.298452 0.537499 0.200128)
(-0.296689 0.537499 0.202732)
(-0.294903 0.537499 0.205321)
(-0.293095 0.537499 0.207893)
(-0.291265 0.537499 0.21045)
(-0.289412 0.537499 0.212991)
(-0.287537 0.537499 0.215515)
(-0.28564 0.537499 0.218023)
(-0.283721 0.537499 0.220515)
(-0.281781 0.537499 0.222989)
(-0.279819 0.537499 0.225446)
(-0.277835 0.537499 0.227886)
(-0.27583 0.537499 0.230309)
(-0.273804 0.537499 0.232714)
(-0.271757 0.537499 0.235101)
(-0.26969 0.537499 0.23747)
(-0.267601 0.537499 0.239821)
(-0.265492 0.537499 0.242153)
(-0.263363 0.537499 0.244467)
(-0.261214 0.537499 0.246763)
(-0.259044 0.537499 0.249039)
(-0.256855 0.537499 0.251296)
(-0.254646 0.537499 0.253535)
(-0.252418 0.537499 0.255753)
(-0.25017 0.537499 0.257952)
(-0.247903 0.537499 0.260132)
(-0.245617 0.537499 0.262291)
(-0.243313 0.537499 0.26443)
(-0.24099 0.537499 0.266549)
(-0.238648 0.537499 0.268648)
(-0.236288 0.537499 0.270726)
(-0.23391 0.537499 0.272783)
(-0.231514 0.537499 0.27482)
(-0.2291 0.537499 0.276835)
(-0.226669 0.537499 0.27883)
(-0.22422 0.537499 0.280802)
(-0.221754 0.537499 0.282754)
(-0.219271 0.537499 0.284683)
(-0.216771 0.537499 0.286591)
(-0.214255 0.537499 0.288477)
(-0.211723 0.537499 0.290341)
(-0.209174 0.537499 0.292183)
(-0.206609 0.537499 0.294002)
(-0.204028 0.537499 0.295799)
(-0.201432 0.537499 0.297573)
(-0.19882 0.537499 0.299324)
(-0.196193 0.537499 0.301053)
(-0.193551 0.537499 0.302758)
(-0.190894 0.537499 0.30444)
(-0.188223 0.537499 0.306099)
(-0.185537 0.537499 0.307734)
(-0.182837 0.537499 0.309346)
(-0.180123 0.537499 0.310934)
(-0.177395 0.537499 0.312499)
(-0.174654 0.537499 0.314039)
(-0.171899 0.537499 0.315555)
(-0.169131 0.537499 0.317048)
(-0.16635 0.537499 0.318516)
(-0.163557 0.537499 0.319959)
(-0.16075 0.537499 0.321378)
(-0.157932 0.537499 0.322772)
(-0.155101 0.537499 0.324142)
(-0.152259 0.537499 0.325487)
(-0.149405 0.537499 0.326807)
(-0.146539 0.537499 0.328102)
(-0.143662 0.537499 0.329372)
(-0.140775 0.537499 0.330616)
(-0.137876 0.537499 0.331835)
(-0.134967 0.537499 0.333029)
(-0.132048 0.537499 0.334197)
(-0.129118 0.537499 0.33534)
(-0.126179 0.537499 0.336457)
(-0.12323 0.537499 0.337549)
(-0.120271 0.537499 0.338614)
(-0.117303 0.537499 0.339653)
(-0.114326 0.537499 0.340667)
(-0.111341 0.537499 0.341654)
(-0.108347 0.537499 0.342616)
(-0.105344 0.537499 0.343551)
(-0.102334 0.537499 0.344459)
(-0.0993159 0.537499 0.345342)
(-0.0962901 0.537499 0.346198)
(-0.0932569 0.537499 0.347027)
(-0.0902165 0.537499 0.34783)
(-0.0871693 0.537499 0.348606)
(-0.0841153 0.537499 0.349355)
(-0.081055 0.537499 0.350078)
(-0.0779884 0.537499 0.350774)
(-0.0749158 0.537499 0.351443)
(-0.0718375 0.537499 0.352085)
(-0.0687537 0.537499 0.3527)
(-0.0656647 0.537499 0.353288)
(-0.0625706 0.537499 0.35385)
(-0.0594717 0.537499 0.354383)
(-0.0563683 0.537499 0.35489)
(-0.0532605 0.537499 0.35537)
(-0.0501487 0.537499 0.355823)
(-0.047033 0.537499 0.356248)
(-0.0439138 0.537499 0.356646)
(-0.0407912 0.537499 0.357016)
(-0.0376654 0.537499 0.35736)
(-0.0345368 0.537499 0.357675)
(-0.0314055 0.537499 0.357964)
(-0.0282718 0.537499 0.358225)
(-0.0251359 0.537499 0.358459)
(-0.0219982 0.537499 0.358665)
(-0.0188587 0.537499 0.358844)
(-0.0157178 0.537499 0.358995)
(-0.0125757 0.537499 0.359119)
(-0.0094326 0.537499 0.359215)
(-0.0062888 0.537499 0.359284)
(0.00314365 0.537499 0.427773)
(-1.04777e-16 0.537499 0.427785)
(-0.00314365 0.537499 0.427773)
(-0.00628714 0.537499 0.427738)
(-0.00943029 0.537499 0.427681)
(-0.0125729 0.537499 0.4276)
(-0.0157149 0.537499 0.427496)
(-0.018856 0.537499 0.427369)
(-0.0219961 0.537499 0.427219)
(-0.025135 0.537499 0.427045)
(-0.0282725 0.537499 0.426849)
(-0.0314085 0.537499 0.42663)
(-0.0345429 0.537499 0.426388)
(-0.0376753 0.537499 0.426122)
(-0.0408057 0.537499 0.425834)
(-0.043934 0.537499 0.425523)
(-0.0470598 0.537499 0.425188)
(-0.0501831 0.537499 0.424831)
(-0.0533037 0.537499 0.424451)
(-0.0564214 0.537499 0.424047)
(-0.0595361 0.537499 0.423621)
(-0.0626476 0.537499 0.423172)
(-0.0657556 0.537499 0.422701)
(-0.0688602 0.537499 0.422206)
(-0.0719609 0.537499 0.421689)
(-0.0750579 0.537499 0.421148)
(-0.0781507 0.537499 0.420585)
(-0.0812394 0.537499 0.42)
(-0.0843236 0.537499 0.419391)
(-0.0874033 0.537499 0.41876)
(-0.0904783 0.537499 0.418107)
(-0.0935484 0.537499 0.417431)
(-0.0966134 0.537499 0.416732)
(-0.0996733 0.537499 0.416011)
(-0.102728 0.537499 0.415267)
(-0.105777 0.537499 0.414501)
(-0.10882 0.537499 0.413712)
(-0.111857 0.537499 0.412901)
(-0.114888 0.537499 0.412068)
(-0.117913 0.537499 0.411213)
(-0.120932 0.537499 0.410335)
(-0.123944 0.537499 0.409436)
(-0.12695 0.537499 0.408514)
(-0.129948 0.537499 0.40757)
(-0.13294 0.537499 0.406604)
(-0.135924 0.537499 0.405616)
(-0.138901 0.537499 0.404606)
(-0.141871 0.537499 0.403574)
(-0.144833 0.537499 0.402521)
(-0.147787 0.537499 0.401446)
(-0.150733 0.537499 0.400349)
(-0.153671 0.537499 0.39923)
(-0.156601 0.537499 0.39809)
(-0.159522 0.537499 0.396929)
(-0.162435 0.537499 0.395746)
(-0.165338 0.537499 0.394541)
(-0.168233 0.537499 0.393316)
(-0.171119 0.537499 0.392069)
(-0.173996 0.537499 0.390801)
(-0.176863 0.537499 0.389511)
(-0.17972 0.537499 0.388201)
(-0.182568 0.537499 0.38687)
(-0.185406 0.537499 0.385518)
(-0.188234 0.537499 0.384145)
(-0.191052 0.537499 0.382751)
(-0.19386 0.537499 0.381337)
(-0.196657 0.537499 0.379902)
(-0.199444 0.537499 0.378447)
(-0.202219 0.537499 0.376971)
(-0.204984 0.537499 0.375475)
(-0.207738 0.537499 0.373958)
(-0.21048 0.537499 0.372421)
(-0.213211 0.537499 0.370865)
(-0.215931 0.537499 0.369288)
(-0.218639 0.537499 0.367691)
(-0.221335 0.537499 0.366074)
(-0.224019 0.537499 0.364438)
(-0.226691 0.537499 0.362782)
(-0.229351 0.537499 0.361106)
(-0.231999 0.537499 0.359411)
(-0.234634 0.537499 0.357696)
(-0.237256 0.537499 0.355963)
(-0.239865 0.537499 0.354209)
(-0.242462 0.537499 0.352437)
(-0.245045 0.537499 0.350646)
(-0.247615 0.537499 0.348836)
(-0.250172 0.537499 0.347006)
(-0.252715 0.537499 0.345159)
(-0.255245 0.537499 0.343292)
(-0.257761 0.537499 0.341407)
(-0.260263 0.537499 0.339504)
(-0.262751 0.537499 0.337582)
(-0.265224 0.537499 0.335642)
(-0.267684 0.537499 0.333684)
(-0.270129 0.537499 0.331708)
(-0.272559 0.537499 0.329714)
(-0.274975 0.537499 0.327702)
(-0.277375 0.537499 0.325672)
(-0.279761 0.537499 0.323625)
(-0.282132 0.537499 0.321561)
(-0.284487 0.537499 0.319479)
(-0.286827 0.537499 0.31738)
(-0.289152 0.537499 0.315263)
(-0.291461 0.537499 0.31313)
(-0.293754 0.537499 0.310979)
(-0.296031 0.537499 0.308812)
(-0.298293 0.537499 0.306628)
(-0.300538 0.537499 0.304428)
(-0.302767 0.537499 0.302211)
(-0.30498 0.537499 0.299978)
(-0.307176 0.537499 0.297729)
(-0.309356 0.537499 0.295464)
(-0.311518 0.537499 0.293182)
(-0.313665 0.537499 0.290885)
(-0.315794 0.537499 0.288572)
(-0.317906 0.537499 0.286244)
(-0.320001 0.537499 0.2839)
(-0.322078 0.537499 0.281541)
(-0.324139 0.537499 0.279166)
(-0.326182 0.537499 0.276777)
(-0.328207 0.537499 0.274372)
(-0.330214 0.537499 0.271953)
(-0.332204 0.537499 0.269519)
(-0.334175 0.537499 0.26707)
(-0.336129 0.537499 0.264607)
(-0.338064 0.537499 0.26213)
(-0.339981 0.537499 0.259639)
(-0.34188 0.537499 0.257133)
(-0.343761 0.537499 0.254614)
(-0.345622 0.537499 0.252081)
(-0.347466 0.537499 0.249534)
(-0.34929 0.537499 0.246974)
(-0.351095 0.537499 0.244401)
(-0.352882 0.537499 0.241814)
(-0.35465 0.537499 0.239214)
(-0.356398 0.537499 0.236601)
(-0.358127 0.537499 0.233976)
(-0.359837 0.537499 0.231338)
(-0.361527 0.537499 0.228687)
(-0.363198 0.537499 0.226024)
(-0.364849 0.537499 0.223349)
(-0.36648 0.537499 0.220662)
(-0.368092 0.537499 0.217963)
(-0.369684 0.537499 0.215252)
(-0.371256 0.537499 0.21253)
(-0.372808 0.537499 0.209796)
(-0.374339 0.537499 0.20705)
(-0.375851 0.537499 0.204294)
(-0.377342 0.537499 0.201526)
(-0.378812 0.537499 0.198748)
(-0.380263 0.537499 0.195959)
(-0.381693 0.537499 0.193159)
(-0.383102 0.537499 0.190349)
(-0.38449 0.537499 0.187528)
(-0.385858 0.537499 0.184698)
(-0.387205 0.537499 0.181857)
(-0.388531 0.537499 0.179007)
(-0.389836 0.537499 0.176147)
(-0.39112 0.537499 0.173277)
(-0.392382 0.537499 0.170399)
(-0.393624 0.537499 0.16751)
(-0.394844 0.537499 0.164613)
(-0.396043 0.537499 0.161707)
(-0.397221 0.537499 0.158792)
(-0.398377 0.537499 0.155869)
(-0.399512 0.537499 0.152937)
(-0.400625 0.537499 0.149997)
(-0.401717 0.537499 0.147049)
(-0.402786 0.537499 0.144093)
(-0.403834 0.537499 0.141129)
(-0.40486 0.537499 0.138158)
(-0.405865 0.537499 0.135179)
(-0.406847 0.537499 0.132193)
(-0.407808 0.537499 0.129199)
(-0.408746 0.537499 0.126199)
(-0.409662 0.537499 0.123192)
(-0.410557 0.537499 0.120178)
(-0.411429 0.537499 0.117158)
(-0.412279 0.537499 0.114131)
(-0.413106 0.537499 0.111098)
(-0.413911 0.537499 0.10806)
(-0.414694 0.537499 0.105015)
(-0.415455 0.537499 0.101965)
(-0.416193 0.537499 0.0989088)
(-0.416909 0.537499 0.0958477)
(-0.417602 0.537499 0.0927813)
(-0.418272 0.537499 0.08971)
(-0.41892 0.537499 0.0866338)
(-0.419546 0.537499 0.083553)
(-0.420148 0.537499 0.0804676)
(-0.420728 0.537499 0.0773779)
(-0.421286 0.537499 0.074284)
(-0.42182 0.537499 0.0711861)
(-0.422332 0.537499 0.0680844)
(-0.422821 0.537499 0.0649789)
(-0.423287 0.537499 0.06187)
(-0.42373 0.537499 0.0587577)
(-0.42415 0.537499 0.0556423)
(-0.424548 0.537499 0.0525238)
(-0.424922 0.537499 0.0494025)
(-0.425274 0.537499 0.0462786)
(-0.425602 0.537499 0.0431521)
(-0.425908 0.537499 0.0400233)
(-0.426191 0.537499 0.0368924)
(-0.42645 0.537499 0.0337595)
(-0.426687 0.537499 0.0306247)
(-0.426901 0.537499 0.0274883)
(-0.427091 0.537499 0.0243504)
(-0.427258 0.537499 0.0212112)
(-0.427403 0.537499 0.0180708)
(-0.427524 0.537499 0.0149295)
(-0.427622 0.537499 0.0117873)
(-0.427697 0.537499 0.00864454)
(-0.427749 0.537499 0.00550129)
(-0.427778 0.537499 0.00235775)
(-0.427784 0.537499 -0.00078592)
(-0.427767 0.537499 -0.00392955)
(-0.427726 0.537499 -0.00707297)
(-0.427662 0.537499 -0.010216)
(-0.427576 0.537499 -0.0133585)
(-0.427466 0.537499 -0.0165002)
(-0.427333 0.537499 -0.0196411)
(-0.427177 0.537499 -0.0227809)
(-0.426999 0.537499 -0.0259195)
(-0.426797 0.537499 -0.0290567)
(-0.426571 0.537499 -0.0321923)
(-0.426324 0.537499 -0.0353262)
(-0.426052 0.537499 -0.0384581)
(-0.425758 0.537499 -0.041588)
(-0.425441 0.537499 -0.0447157)
(-0.425101 0.537499 -0.0478409)
(-0.424738 0.537499 -0.0509635)
(-0.424352 0.537499 -0.0540834)
(-0.423943 0.537499 -0.0572004)
(-0.423511 0.537499 -0.0603143)
(-0.423057 0.537499 -0.0634249)
(-0.422579 0.537499 -0.0665321)
(-0.422079 0.537499 -0.0696357)
(-0.421556 0.537499 -0.0727355)
(-0.42101 0.537499 -0.0758315)
(-0.420441 0.537499 -0.0789233)
(-0.41985 0.537499 -0.0820109)
(-0.419236 0.537499 -0.085094)
(-0.418599 0.537499 -0.0881725)
(-0.41794 0.537499 -0.0912463)
(-0.417258 0.537499 -0.0943151)
(-0.416554 0.537499 -0.0973789)
(-0.415827 0.537499 -0.100437)
(-0.415078 0.537499 -0.10349)
(-0.414306 0.537499 -0.106538)
(-0.413512 0.537499 -0.10958)
(-0.412695 0.537499 -0.112616)
(-0.411857 0.537499 -0.115645)
(-0.410996 0.537499 -0.118669)