/*--------------------------------*- C++ -*----------------------------------*\
  =========                 |
  \\      /  F ield         | OpenFOAM: The Open Source CFD Toolbox
   \\    /   O peration     | Website:  https://openfoam.org
    \\  /    A nd           | Version:  10
     \\/     M anipulation  |
\*---------------------------------------------------------------------------*/
FoamFile
{
    format      ascii;
    class       featureEdgeMesh;
    location    "constant/triSurface";
    object      impeller_shaft.eMesh;
}
// * * * * * * * * * * * * * * * * * * * * * * * * * * * * * * * * * * * * * //


// points:

834
(
(-0.0328885 1.11415 0.00862244)
(-0.03005 1.12809 0.0159058)
(0.00125017 1.07191 0.033977)
(0.008977 1.08585 0.0327935)
(0.008977 1.11415 -0.0327935)
(-0.03005 1.07191 -0.0159058)
(-0.0328885 1.08585 -0.00862244)
(0.00125017 1.12809 -0.033977)
(0.0239115 1.11415 0.0241711)
(0.0287999 1.07191 -0.0180712)
(0.0239115 1.08585 -0.0241711)
(0.0287999 1.12809 0.0180712)
(-0.00211377 0.407083 0.0339342)
(-8.3276e-18 0.407083 0.034)
(-8.3276e-18 1.016 0.034)
(-0.00211377 1.016 0.0339342)
(-0.00421936 1.016 0.0337372)
(-0.00630862 1.016 0.0334096)
(-0.00837348 1.016 0.0329528)
(-0.010406 1.016 0.0323685)
(-0.0123981 1.016 0.0316589)
(-0.0143424 1.016 0.0308269)
(-0.0162311 1.016 0.0298756)
(-0.0180571 1.016 0.0288087)
(-0.0198132 1.016 0.0276304)
(-0.0214926 1.016 0.0263451)
(-0.0230889 1.016 0.024958)
(-0.0245959 1.016 0.0234743)
(-0.0260077 1.016 0.0218998)
(-0.0273189 1.016 0.0202405)
(-0.0285244 1.016 0.0185029)
(-0.0296195 1.016 0.0166938)
(-0.0306001 1.016 0.0148201)
(-0.0314623 1.016 0.012889)
(-0.0322027 1.016 0.0109081)
(-0.0328186 1.016 0.00888494)
(-0.0333075 1.016 0.00682744)
(-0.0336675 1.016 0.00474352)
(-0.0338973 1.016 0.00264125)
(-0.0339959 1.016 0.000528762)
(-0.033963 1.016 -0.00158577)
(-0.0337987 1.016 -0.00369417)
(-0.0335037 1.016 -0.00578828)
(-0.033079 1.016 -0.00785999)
(-0.0325264 1.016 -0.0099013)
(-0.0318479 1.016 -0.0119043)
(-0.0310462 1.016 -0.0138612)
(-0.0301244 1.016 -0.0157646)
(-0.029086 1.016 -0.0176069)
(-0.0279352 1.016 -0.0193811)
(-0.0266762 1.016 -0.0210803)
(-0.025314 1.016 -0.022698)
(-0.023854 1.016 -0.0242279)
(-0.0223016 1.016 -0.025664)
(-0.0206629 1.016 -0.0270008)
(-0.0189443 1.016 -0.0282332)
(-0.0171524 1.016 -0.0293563)
(-0.0152942 1.016 -0.0303659)
(-0.0133767 1.016 -0.031258)
(-0.0114076 1.016 -0.0320292)
(-0.00939426 1.016 -0.0326764)
(-0.00734461 1.016 -0.0331972)
(-0.00526654 1.016 -0.0335896)
(-0.00316809 1.016 -0.0338521)
(-0.0010574 1.016 -0.0339836)
(0.0010574 1.016 -0.0339836)
(0.00316809 1.016 -0.0338521)
(0.00526654 1.016 -0.0335896)
(0.00734461 1.016 -0.0331972)
(0.00939426 1.016 -0.0326764)
(0.0114076 1.016 -0.0320292)
(0.0133767 1.016 -0.031258)
(0.0152942 1.016 -0.0303659)
(0.0171524 1.016 -0.0293563)
(0.0189443 1.016 -0.0282332)
(0.0206629 1.016 -0.0270008)
(0.0223016 1.016 -0.025664)
(0.023854 1.016 -0.0242279)
(0.025314 1.016 -0.022698)
(0.0266762 1.016 -0.0210803)
(0.0279352 1.016 -0.0193811)
(0.029086 1.016 -0.0176069)
(0.0301244 1.016 -0.0157646)
(0.0310462 1.016 -0.0138612)
(0.0318479 1.016 -0.0119043)
(0.0325264 1.016 -0.0099013)
(0.033079 1.016 -0.00785999)
(0.0335037 1.016 -0.00578828)
(0.0337987 1.016 -0.00369417)
(0.033963 1.016 -0.00158577)
(0.0339959 1.016 0.000528762)
(0.0338973 1.016 0.00264125)
(0.0336675 1.016 0.00474352)
(0.0333075 1.016 0.00682744)
(0.0328186 1.016 0.00888494)
(0.0322027 1.016 0.0109081)
(0.0314623 1.016 0.012889)
(0.0306001 1.016 0.0148201)
(0.0296195 1.016 0.0166938)
(0.0285244 1.016 0.0185029)
(0.0273189 1.016 0.0202405)
(0.0260077 1.016 0.0218998)
(0.0245959 1.016 0.0234743)
(0.0230889 1.016 0.024958)
(0.0214926 1.016 0.0263451)
(0.0198132 1.016 0.0276304)
(0.0180571 1.016 0.0288087)
(0.0162311 1.016 0.0298756)
(0.0143424 1.016 0.0308269)
(0.0123981 1.016 0.0316589)
(0.010406 1.016 0.0323685)
(0.00837348 1.016 0.0329528)
(0.00630862 1.016 0.0334096)
(0.00421936 1.016 0.0337372)
(0.00211377 1.016 0.0339342)
(0.00211377 0.407083 0.0339342)
(0.00421936 0.407083 0.0337372)
(0.00630862 0.407083 0.0334096)
(0.00837348 0.407083 0.0329528)
(0.010406 0.407083 0.0323685)
(0.0123981 0.407083 0.0316589)
(0.0143424 0.407083 0.0308269)
(0.0162311 0.407083 0.0298756)
(0.0180571 0.407083 0.0288087)
(0.0198132 0.407083 0.0276304)
(0.0214926 0.407083 0.0263451)
(0.0230889 0.407083 0.024958)
(0.0245959 0.407083 0.0234743)
(0.0260077 0.407083 0.0218998)
(0.0273189 0.407083 0.0202405)
(0.0285244 0.407083 0.0185029)
(0.0296195 0.407083 0.0166938)
(0.0306001 0.407083 0.0148201)
(0.0314623 0.407083 0.012889)
(0.0322027 0.407083 0.0109081)
(0.0328186 0.407083 0.00888494)
(0.0333075 0.407083 0.00682744)
(0.0336675 0.407083 0.00474352)
(0.0338973 0.407083 0.00264125)
(0.0339959 0.407083 0.000528762)
(0.033963 0.407083 -0.00158577)
(0.0337987 0.407083 -0.00369417)
(0.0335037 0.407083 -0.00578828)
(0.033079 0.407083 -0.00785999)
(0.0325264 0.407083 -0.0099013)
(0.0318479 0.407083 -0.0119043)
(0.0310462 0.407083 -0.0138612)
(0.0301244 0.407083 -0.0157646)
(0.029086 0.407083 -0.0176069)
(0.0279352 0.407083 -0.0193811)
(0.0266762 0.407083 -0.0210803)
(0.025314 0.407083 -0.022698)
(0.023854 0.407083 -0.0242279)
(0.0223016 0.407083 -0.025664)
(0.0206629 0.407083 -0.0270008)
(0.0189443 0.407083 -0.0282332)
(0.0171524 0.407083 -0.0293563)
(0.0152942 0.407083 -0.0303659)
(0.0133767 0.407083 -0.031258)
(0.0114076 0.407083 -0.0320292)
(0.00939426 0.407083 -0.0326764)
(0.00734461 0.407083 -0.0331972)
(0.00526654 0.407083 -0.0335896)
(0.00316809 0.407083 -0.0338521)
(0.0010574 0.407083 -0.0339836)
(-0.0010574 0.407083 -0.0339836)
(-0.00316809 0.407083 -0.0338521)
(-0.00526654 0.407083 -0.0335896)
(-0.00734461 0.407083 -0.0331972)
(-0.00939426 0.407083 -0.0326764)
(-0.0114076 0.407083 -0.0320292)
(-0.0133767 0.407083 -0.031258)
(-0.0152942 0.407083 -0.0303659)
(-0.0171524 0.407083 -0.0293563)
(-0.0189443 0.407083 -0.0282332)
(-0.0206629 0.407083 -0.0270008)
(-0.0223016 0.407083 -0.025664)
(-0.023854 0.407083 -0.0242279)
(-0.025314 0.407083 -0.022698)
(-0.0266762 0.407083 -0.0210803)
(-0.0279352 0.407083 -0.0193811)
(-0.029086 0.407083 -0.0176069)
(-0.0301244 0.407083 -0.0157646)
(-0.0310462 0.407083 -0.0138612)
(-0.0318479 0.407083 -0.0119043)
(-0.0325264 0.407083 -0.0099013)
(-0.033079 0.407083 -0.00785999)
(-0.0335037 0.407083 -0.00578828)
(-0.0337987 0.407083 -0.00369417)
(-0.033963 0.407083 -0.00158577)
(-0.0339959 0.407083 0.000528762)
(-0.0338973 0.407083 0.00264125)
(-0.0336675 0.407083 0.00474352)
(-0.0333075 0.407083 0.00682744)
(-0.0328186 0.407083 0.00888494)
(-0.0322027 0.407083 0.0109081)
(-0.0314623 0.407083 0.012889)
(-0.0306001 0.407083 0.0148201)
(-0.0296195 0.407083 0.0166938)
(-0.0285244 0.407083 0.0185029)
(-0.0273189 0.407083 0.0202405)
(-0.0260077 0.407083 0.0218998)
(-0.0245959 0.407083 0.0234743)
(-0.0230889 0.407083 0.024958)
(-0.0214926 0.407083 0.0263451)
(-0.0198132 0.407083 0.0276304)
(-0.0180571 0.407083 0.0288087)
(-0.0162311 0.407083 0.0298756)
(-0.0143424 0.407083 0.0308269)
(-0.0123981 0.407083 0.0316589)
(-0.010406 0.407083 0.0323685)
(-0.00837348 0.407083 0.0329528)
(-0.00630862 0.407083 0.0334096)
(-0.00421936 0.407083 0.0337372)
(-0.032416 1.11293 0.0102567)
(-0.0326332 1.11591 0.00954327)
(-0.0318719 1.11167 0.01184)
(-0.0312602 1.11037 0.0133715)
(-0.0305852 1.10905 0.0148508)
(-0.0298503 1.10769 0.0162777)
(-0.0290588 1.10632 0.0176517)
(-0.0282139 1.10493 0.018973)
(-0.0273183 1.10352 0.0202412)
(-0.0263746 1.1021 0.0214565)
(-0.0253849 1.10066 0.0226187)
(-0.0243516 1.09921 0.0237276)
(-0.0232765 1.09775 0.0247831)
(-0.0221615 1.09628 0.0257851)
(-0.0210081 1.09481 0.0267331)
(-0.0198181 1.09333 0.0276269)
(-0.0185927 1.09185 0.028466)
(-0.0173334 1.09037 0.0292498)
(-0.0160414 1.08889 0.0299779)
(-0.014718 1.0874 0.0306493)
(-0.0133643 1.08592 0.0312633)
(-0.0119813 1.08445 0.031819)
(-0.0105703 1.08298 0.0323151)
(-0.00913231 1.08152 0.0327506)
(-0.00766835 1.08006 0.033124)
(-0.00617957 1.07862 0.0334337)
(-0.0046671 1.07719 0.0336782)
(-0.00157598 1.07437 0.0339635)
(-8.3276e-18 1.07298 0.034)
(-8.3276e-18 1.09302 0.034)
(-0.00159322 1.09442 0.0339626)
(-0.00316617 1.09583 0.0338523)
(-0.00471742 1.09727 0.0336711)
(-0.00624563 1.09872 0.0334214)
(-0.00774958 1.10018 0.033105)
(-0.0092281 1.10165 0.0327237)
(-0.01068 1.10313 0.0322791)
(-0.0121043 1.10461 0.0317724)
(-0.0134997 1.10611 0.0312051)
(-0.0148652 1.1076 0.0305782)
(-0.0161996 1.1091 0.0298927)
(-0.0175016 1.1106 0.0291495)
(-0.0187702 1.1121 0.0283493)
(-0.0200038 1.1136 0.0274927)
(-0.0212011 1.11509 0.0265803)
(-0.0223607 1.11658 0.0256125)
(-0.0234808 1.11806 0.0245897)
(-0.0245597 1.11953 0.0235121)
(-0.0255956 1.12099 0.02238)
(-0.0265864 1.12244 0.0211935)
(-0.0275297 1.12388 0.0199528)
(-0.0284233 1.1253 0.0186579)
(-0.0292644 1.12671 0.0173088)
(-0.0305085 1.12636 0.0150077)
(-0.030936 1.12463 0.0141055)
(-0.0313333 1.1229 0.0131995)
(-0.0317011 1.12116 0.01229)
(-0.0320399 1.11941 0.0113773)
(-0.0323505 1.11766 0.0104616)
(-0.00313214 1.07577 0.0338554)
(0.00146632 1.09176 0.0339684)
(0.00225718 1.07364 0.033925)
(0.00325227 1.07537 0.0338441)
(0.00423555 1.0771 0.0337351)
(0.00616696 1.08059 0.033436)
(0.00711521 1.08234 0.0332472)
(0.00745708 1.08697 0.0331722)
(0.00805189 1.08409 0.0330328)
(0.00594398 1.08813 0.0334764)
(0.0044399 1.08932 0.0337089)
(0.00294679 1.09053 0.0338721)
(0.00520709 1.07885 0.0335989)
(-0.00211377 1.184 0.0339342)
(-8.3276e-18 1.184 0.034)
(-8.3276e-18 1.275 0.034)
(-0.00211377 1.275 0.0339342)
(-0.00421936 1.275 0.0337372)
(-0.00630862 1.275 0.0334096)
(-0.00837348 1.275 0.0329528)
(-0.010406 1.275 0.0323685)
(-0.0123981 1.275 0.0316589)
(-0.0143424 1.275 0.0308269)
(-0.0162311 1.275 0.0298756)
(-0.0180571 1.275 0.0288087)
(-0.0198132 1.275 0.0276304)
(-0.0214926 1.275 0.0263451)
(-0.0230889 1.275 0.024958)
(-0.0245959 1.275 0.0234743)
(-0.0260077 1.275 0.0218998)
(-0.0273189 1.275 0.0202405)
(-0.0285244 1.275 0.0185029)
(-0.0296195 1.275 0.0166938)
(-0.0306001 1.275 0.0148201)
(-0.0314623 1.275 0.012889)
(-0.0322027 1.275 0.0109081)
(-0.0328186 1.275 0.00888494)
(-0.0333075 1.275 0.00682744)
(-0.0336675 1.275 0.00474352)
(-0.0338973 1.275 0.00264125)
(-0.0339959 1.275 0.000528762)
(-0.033963 1.275 -0.00158577)
(-0.0337987 1.275 -0.00369417)
(-0.0335037 1.275 -0.00578828)
(-0.033079 1.275 -0.00785999)
(-0.0325264 1.275 -0.0099013)
(-0.0318479 1.275 -0.0119043)
(-0.0310462 1.275 -0.0138612)
(-0.0301244 1.275 -0.0157646)
(-0.029086 1.275 -0.0176069)
(-0.0279352 1.275 -0.0193811)
(-0.0266762 1.275 -0.0210803)
(-0.025314 1.275 -0.022698)
(-0.023854 1.275 -0.0242279)
(-0.0223016 1.275 -0.025664)
(-0.0206629 1.275 -0.0270008)
(-0.0189443 1.275 -0.0282332)
(-0.0171524 1.275 -0.0293563)
(-0.0152942 1.275 -0.0303659)
(-0.0133767 1.275 -0.031258)
(-0.0114076 1.275 -0.0320292)
(-0.00939426 1.275 -0.0326764)
(-0.00734461 1.275 -0.0331972)
(-0.00526654 1.275 -0.0335896)
(-0.00316809 1.275 -0.0338521)
(-0.0010574 1.275 -0.0339836)
(0.0010574 1.275 -0.0339836)
(0.00316809 1.275 -0.0338521)
(0.00526654 1.275 -0.0335896)
(0.00734461 1.275 -0.0331972)
(0.00939426 1.275 -0.0326764)
(0.0114076 1.275 -0.0320292)
(0.0133767 1.275 -0.031258)
(0.0152942 1.275 -0.0303659)
(0.0171524 1.275 -0.0293563)
(0.0189443 1.275 -0.0282332)
(0.0206629 1.275 -0.0270008)
(0.0223016 1.275 -0.025664)
(0.023854 1.275 -0.0242279)
(0.025314 1.275 -0.022698)
(0.0266762 1.275 -0.0210803)
(0.0279352 1.275 -0.0193811)
(0.029086 1.275 -0.0176069)
(0.0301244 1.275 -0.0157646)
(0.0310462 1.275 -0.0138612)
(0.0318479 1.275 -0.0119043)
(0.0325264 1.275 -0.0099013)
(0.033079 1.275 -0.00785999)
(0.0335037 1.275 -0.00578828)
(0.0337987 1.275 -0.00369417)
(0.033963 1.275 -0.00158577)
(0.0339959 1.275 0.000528762)
(0.0338973 1.275 0.00264125)
(0.0336675 1.275 0.00474352)
(0.0333075 1.275 0.00682744)
(0.0328186 1.275 0.00888494)
(0.0322027 1.275 0.0109081)
(0.0314623 1.275 0.012889)
(0.0306001 1.275 0.0148201)
(0.0296195 1.275 0.0166938)
(0.0285244 1.275 0.0185029)
(0.0273189 1.275 0.0202405)
(0.0260077 1.275 0.0218998)
(0.0245959 1.275 0.0234743)
(0.0230889 1.275 0.024958)
(0.0214926 1.275 0.0263451)
(0.0198132 1.275 0.0276304)
(0.0180571 1.275 0.0288087)
(0.0162311 1.275 0.0298756)
(0.0143424 1.275 0.0308269)
(0.0123981 1.275 0.0316589)
(0.010406 1.275 0.0323685)
(0.00837348 1.275 0.0329528)
(0.00630862 1.275 0.0334096)
(0.00421936 1.275 0.0337372)
(0.00211377 1.275 0.0339342)
(0.00211377 1.184 0.0339342)
(0.00421936 1.184 0.0337372)
(0.00630862 1.184 0.0334096)
(0.00837348 1.184 0.0329528)
(0.010406 1.184 0.0323685)
(0.0123981 1.184 0.0316589)
(0.0143424 1.184 0.0308269)
(0.0162311 1.184 0.0298756)
(0.0180571 1.184 0.0288087)
(0.0198132 1.184 0.0276304)
(0.0214926 1.184 0.0263451)
(0.0230889 1.184 0.024958)
(0.0245959 1.184 0.0234743)
(0.0260077 1.184 0.0218998)
(0.0273189 1.184 0.0202405)
(0.0285244 1.184 0.0185029)
(0.0296195 1.184 0.0166938)
(0.0306001 1.184 0.0148201)
(0.0314623 1.184 0.012889)
(0.0322027 1.184 0.0109081)
(0.0328186 1.184 0.00888494)
(0.0333075 1.184 0.00682744)
(0.0336675 1.184 0.00474352)
(0.0338973 1.184 0.00264125)
(0.0339959 1.184 0.000528762)
(0.033963 1.184 -0.00158577)
(0.0337987 1.184 -0.00369417)
(0.0335037 1.184 -0.00578828)
(0.033079 1.184 -0.00785999)
(0.0325264 1.184 -0.0099013)
(0.0318479 1.184 -0.0119043)
(0.0310462 1.184 -0.0138612)
(0.0301244 1.184 -0.0157646)
(0.029086 1.184 -0.0176069)
(0.0279352 1.184 -0.0193811)
(0.0266762 1.184 -0.0210803)
(0.025314 1.184 -0.022698)
(0.023854 1.184 -0.0242279)
(0.0223016 1.184 -0.025664)
(0.0206629 1.184 -0.0270008)
(0.0189443 1.184 -0.0282332)
(0.0171524 1.184 -0.0293563)
(0.0152942 1.184 -0.0303659)
(0.0133767 1.184 -0.031258)
(0.0114076 1.184 -0.0320292)
(0.00939426 1.184 -0.0326764)
(0.00734461 1.184 -0.0331972)
(0.00526654 1.184 -0.0335896)
(0.00316809 1.184 -0.0338521)
(0.0010574 1.184 -0.0339836)
(-0.0010574 1.184 -0.0339836)
(-0.00316809 1.184 -0.0338521)
(-0.00526654 1.184 -0.0335896)
(-0.00734461 1.184 -0.0331972)
(-0.00939426 1.184 -0.0326764)
(-0.0114076 1.184 -0.0320292)
(-0.0133767 1.184 -0.031258)
(-0.0152942 1.184 -0.0303659)
(-0.0171524 1.184 -0.0293563)
(-0.0189443 1.184 -0.0282332)
(-0.0206629 1.184 -0.0270008)
(-0.0223016 1.184 -0.025664)
(-0.023854 1.184 -0.0242279)
(-0.025314 1.184 -0.022698)
(-0.0266762 1.184 -0.0210803)
(-0.0279352 1.184 -0.0193811)
(-0.029086 1.184 -0.0176069)
(-0.0301244 1.184 -0.0157646)
(-0.0310462 1.184 -0.0138612)
(-0.0318479 1.184 -0.0119043)
(-0.0325264 1.184 -0.0099013)
(-0.033079 1.184 -0.00785999)
(-0.0335037 1.184 -0.00578828)
(-0.0337987 1.184 -0.00369417)
(-0.033963 1.184 -0.00158577)
(-0.0339959 1.184 0.000528762)
(-0.0338973 1.184 0.00264125)
(-0.0336675 1.184 0.00474352)
(-0.0333075 1.184 0.00682744)
(-0.0328186 1.184 0.00888494)
(-0.0322027 1.184 0.0109081)
(-0.0314623 1.184 0.012889)
(-0.0306001 1.184 0.0148201)
(-0.0296195 1.184 0.0166938)
(-0.0285244 1.184 0.0185029)
(-0.0273189 1.184 0.0202405)
(-0.0260077 1.184 0.0218998)
(-0.0245959 1.184 0.0234743)
(-0.0230889 1.184 0.024958)
(-0.0214926 1.184 0.0263451)
(-0.0198132 1.184 0.0276304)
(-0.0180571 1.184 0.0288087)
(-0.0162311 1.184 0.0298756)
(-0.0143424 1.184 0.0308269)
(-0.0123981 1.184 0.0316589)
(-0.010406 1.184 0.0323685)
(-0.00837348 1.184 0.0329528)
(-0.00630862 1.184 0.0334096)
(-0.00421936 1.184 0.0337372)
(0.00733727 1.11294 -0.0331989)
(0.00805189 1.11591 -0.0330328)
(0.0057057 1.11168 -0.0335178)
(0.00408501 1.1104 -0.0337537)
(0.00247756 1.10908 -0.0339096)
(0.000885407 1.10774 -0.0339885)
(-0.000689648 1.10638 -0.033993)
(-0.00224601 1.105 -0.0339257)
(-0.00378223 1.1036 -0.033789)
(-0.00529701 1.10219 -0.0335848)
(-0.00678911 1.10076 -0.0333153)
(-0.00825741 1.09932 -0.032982)
(-0.00970079 1.09787 -0.0325867)
(-0.0111182 1.09642 -0.0321308)
(-0.0125086 1.09496 -0.0316154)
(-0.0138708 1.09349 -0.0310419)
(-0.0152039 1.09202 -0.0304112)
(-0.0165067 1.09055 -0.0297242)
(-0.0177781 1.08908 -0.0289817)
(-0.0190169 1.08761 -0.0281844)
(-0.0202217 1.08614 -0.0273328)
(-0.0213913 1.08467 -0.0264275)
(-0.0225242 1.08321 -0.0254688)
(-0.0236188 1.08176 -0.0244571)
(-0.0246735 1.08031 -0.0233926)
(-0.0256865 1.07887 -0.0222756)
(-0.0266558 1.07745 -0.0211061)
(-0.0275792 1.07604 -0.0198843)
(-0.0284545 1.07465 -0.0186103)
(-0.029279 1.07327 -0.0172841)
(-0.0305085 1.07364 -0.0150077)
(-0.030936 1.07537 -0.0141055)
(-0.0313333 1.0771 -0.0131995)
(-0.0317011 1.07885 -0.01229)
(-0.0320399 1.08059 -0.0113773)
(-0.0323505 1.08234 -0.0104616)
(-0.0326332 1.08409 -0.00954327)
(-0.0324197 1.08706 -0.0102452)
(-0.0318801 1.08832 -0.0118176)
(-0.0312741 1.0896 -0.0133391)
(-0.0306054 1.09092 -0.0148092)
(-0.0298776 1.09226 -0.0162275)
(-0.029094 1.09362 -0.0175938)
(-0.0282575 1.095 -0.018908)
(-0.027371 1.0964 -0.02017)
(-0.0264368 1.09781 -0.0213798)
(-0.0254573 1.09924 -0.0225372)
(-0.0244346 1.10068 -0.0236422)
(-0.0233705 1.10213 -0.0246945)
(-0.022267 1.10358 -0.025694)
(-0.0211255 1.10504 -0.0266405)
(-0.0199477 1.10651 -0.0275334)
(-0.0187349 1.10798 -0.0283726)
(-0.0174885 1.10945 -0.0291573)
(-0.0162098 1.11092 -0.0298871)
(-0.0148999 1.11239 -0.0305613)
(-0.01356 1.11386 -0.0311789)
(-0.0121912 1.11533 -0.0317392)
(-0.0107945 1.11679 -0.0322409)
(-0.00937106 1.11824 -0.0326831)
(-0.00792185 1.11969 -0.0330642)
(-0.00644798 1.12112 -0.033383)
(-0.00495055 1.12255 -0.0336377)
(-0.00343073 1.12396 -0.0338265)
(-0.00188976 1.12535 -0.0339474)
(-0.000328964 1.12673 -0.0339984)
(0.00225718 1.12636 -0.033925)
(0.00325227 1.12463 -0.0338441)
(0.00423555 1.1229 -0.0337351)
(0.00520709 1.12116 -0.0335989)
(0.00616696 1.11941 -0.033436)
(0.00711521 1.11766 -0.0332472)
(0.0250824 1.11294 0.0229537)
(0.0245813 1.11591 0.0234895)
(0.0261744 1.11168 0.0217002)
(0.0271891 1.1104 0.0204146)
(0.0281278 1.10908 0.0191004)
(0.0289922 1.10774 0.017761)
(0.0297836 1.10638 0.0163992)
(0.0305036 1.105 0.0150178)
(0.0311532 1.1036 0.013619)
(0.0317338 1.10219 0.0122051)
(0.0322464 1.10076 0.0107781)
(0.032692 1.09932 0.00933989)
(0.0330713 1.09787 0.00789223)
(0.0333852 1.09642 0.00643674)
(0.0336341 1.09496 0.00497499)
(0.0338185 1.09349 0.00350846)
(0.0339388 1.09202 0.00203861)
(0.0339953 1.09055 0.000566839)
(0.0339879 1.08908 -0.000905464)
(0.0339168 1.08761 -0.00237692)
(0.0337818 1.08614 -0.00384613)
(0.0335825 1.08467 -0.00531168)
(0.0333187 1.08321 -0.00677213)
(0.0329899 1.08176 -0.00822596)
(0.0325954 1.08031 -0.0096716)
(0.0321345 1.07887 -0.0111074)
(0.0316063 1.07745 -0.0125315)
(0.0310099 1.07604 -0.0139421)
(0.0303442 1.07465 -0.0153371)
(0.029608 1.07327 -0.0167143)
(0.0282513 1.07364 -0.0189173)
(0.0276837 1.07537 -0.0197386)
(0.0270977 1.0771 -0.0205357)
(0.026494 1.07885 -0.0213089)
(0.025873 1.08059 -0.0220588)
(0.0252353 1.08234 -0.0227855)
(0.0245813 1.08409 -0.0234895)
(0.0250824 1.08706 -0.0229537)
(0.0261744 1.08832 -0.0217002)
(0.0271891 1.0896 -0.0204146)
(0.0281278 1.09092 -0.0191004)
(0.0289922 1.09226 -0.017761)
(0.0297836 1.09362 -0.0163992)
(0.0305036 1.095 -0.0150178)
(0.0311532 1.0964 -0.013619)
(0.0317338 1.09781 -0.0122051)
(0.0322464 1.09924 -0.0107781)
(0.032692 1.10068 -0.00933989)
(0.0330713 1.10213 -0.00789223)
(0.0333852 1.10358 -0.00643674)
(0.0336341 1.10504 -0.00497499)
(0.0338185 1.10651 -0.00350846)
(0.0339388 1.10798 -0.00203861)
(0.0339953 1.10945 -0.000566839)
(0.0339879 1.11092 0.000905464)
(0.0339168 1.11239 0.00237692)
(0.0337818 1.11386 0.00384613)
(0.0335825 1.11533 0.00531168)
(0.0333187 1.11679 0.00677213)
(0.0329899 1.11824 0.00822596)
(0.0325954 1.11969 0.0096716)
(0.0321345 1.12112 0.0111074)
(0.0316063 1.12255 0.0125315)
(0.0310099 1.12396 0.0139421)
(0.0303442 1.12535 0.0153371)
(0.029608 1.12673 0.0167143)
(0.0282513 1.12636 0.0189173)
(0.0276837 1.12463 0.0197386)
(0.0270977 1.1229 0.0205357)
(0.026494 1.12116 0.0213089)
(0.025873 1.11941 0.0220588)
(0.0252353 1.11766 0.0227855)
(0.00211377 0.392917 0.0339342)
(-8.3276e-18 0.392917 0.034)
(-8.3276e-18 0.225 0.034)
(0.00211377 0.225 0.0339342)
(0.00421936 0.225 0.0337372)
(0.00630862 0.225 0.0334096)
(0.00837348 0.225 0.0329528)
(0.010406 0.225 0.0323685)
(0.0123981 0.225 0.0316589)
(0.0143424 0.225 0.0308269)
(0.0162311 0.225 0.0298756)
(0.0180571 0.225 0.0288087)
(0.0198132 0.225 0.0276304)
(0.0214926 0.225 0.0263451)
(0.0230889 0.225 0.024958)
(0.0245959 0.225 0.0234743)
(0.0260077 0.225 0.0218998)
(0.0273189 0.225 0.0202405)
(0.0285244 0.225 0.0185029)
(0.0296195 0.225 0.0166938)
(0.0306001 0.225 0.0148201)
(0.0314623 0.225 0.012889)
(0.0322027 0.225 0.0109081)
(0.0328186 0.225 0.00888494)
(0.0333075 0.225 0.00682744)
(0.0336675 0.225 0.00474352)
(0.0338973 0.225 0.00264125)
(0.0339959 0.225 0.000528762)
(0.033963 0.225 -0.00158577)
(0.0337987 0.225 -0.00369417)
(0.0335037 0.225 -0.00578828)
(0.033079 0.225 -0.00785999)
(0.0325264 0.225 -0.0099013)
(0.0318479 0.225 -0.0119043)
(0.0310462 0.225 -0.0138612)
(0.0301244 0.225 -0.0157646)
(0.029086 0.225 -0.0176069)
(0.0279352 0.225 -0.0193811)
(0.0266762 0.225 -0.0210803)
(0.025314 0.225 -0.022698)
(0.023854 0.225 -0.0242279)
(0.0223016 0.225 -0.025664)
(0.0206629 0.225 -0.0270008)
(0.0189443 0.225 -0.0282332)
(0.0171524 0.225 -0.0293563)
(0.0152942 0.225 -0.0303659)
(0.0133767 0.225 -0.031258)
(0.0114076 0.225 -0.0320292)
(0.00939426 0.225 -0.0326764)
(0.00734461 0.225 -0.0331972)
(0.00526654 0.225 -0.0335896)
(0.00316809 0.225 -0.0338521)
(0.0010574 0.225 -0.0339836)
(-0.0010574 0.225 -0.0339836)
(-0.00316809 0.225 -0.0338521)
(-0.00526654 0.225 -0.0335896)
(-0.00734461 0.225 -0.0331972)
(-0.00939426 0.225 -0.0326764)
(-0.0114076 0.225 -0.0320292)
(-0.0133767 0.225 -0.031258)
(-0.0152942 0.225 -0.0303659)
(-0.0171524 0.225 -0.0293563)
(-0.0189443 0.225 -0.0282332)
(-0.0206629 0.225 -0.0270008)
(-0.0223016 0.225 -0.025664)
(-0.023854 0.225 -0.0242279)
(-0.025314 0.225 -0.022698)
(-0.0266762 0.225 -0.0210803)
(-0.0279352 0.225 -0.0193811)
(-0.029086 0.225 -0.0176069)
(-0.0301244 0.225 -0.0157646)
(-0.0310462 0.225 -0.0138612)
(-0.0318479 0.225 -0.0119043)
(-0.0325264 0.225 -0.0099013)
(-0.033079 0.225 -0.00785999)
(-0.0335037 0.225 -0.00578828)
(-0.0337987 0.225 -0.00369417)
(-0.033963 0.225 -0.00158577)
(-0.0339959 0.225 0.000528762)
(-0.0338973 0.225 0.00264125)
(-0.0336675 0.225 0.00474352)
(-0.0333075 0.225 0.00682744)
(-0.0328186 0.225 0.00888494)
(-0.0322027 0.225 0.0109081)
(-0.0314623 0.225 0.012889)
(-0.0306001 0.225 0.0148201)
(-0.0296195 0.225 0.0166938)
(-0.0285244 0.225 0.0185029)
(-0.0273189 0.225 0.0202405)
(-0.0260077 0.225 0.0218998)
(-0.0245959 0.225 0.0234743)
(-0.0230889 0.225 0.024958)
(-0.0214926 0.225 0.0263451)
(-0.0198132 0.225 0.0276304)
(-0.0180571 0.225 0.0288087)
(-0.0162311 0.225 0.0298756)
(-0.0143424 0.225 0.0308269)
(-0.0123981 0.225 0.0316589)
(-0.010406 0.225 0.0323685)
(-0.00837348 0.225 0.0329528)
(-0.00630862 0.225 0.0334096)
(-0.00421936 0.225 0.0337372)
(-0.00211377 0.225 0.0339342)
(-0.00211377 0.392917 0.0339342)
(-0.00421936 0.392917 0.0337372)
(-0.00630862 0.392917 0.0334096)
(-0.00837348 0.392917 0.0329528)
(-0.010406 0.392917 0.0323685)
(-0.0123981 0.392917 0.0316589)
(-0.0143424 0.392917 0.0308269)
(-0.0162311 0.392917 0.0298756)
(-0.0180571 0.392917 0.0288087)
(-0.0198132 0.392917 0.0276304)
(-0.0214926 0.392917 0.0263451)
(-0.0230889 0.392917 0.024958)
(-0.0245959 0.392917 0.0234743)
(-0.0260077 0.392917 0.0218998)
(-0.0273189 0.392917 0.0202405)
(-0.0285244 0.392917 0.0185029)
(-0.0296195 0.392917 0.0166938)
(-0.0306001 0.392917 0.0148201)
(-0.0314623 0.392917 0.012889)
(-0.0322027 0.392917 0.0109081)
(-0.0328186 0.392917 0.00888494)
(-0.0333075 0.392917 0.00682744)
(-0.0336675 0.392917 0.00474352)
(-0.0338973 0.392917 0.00264125)
(-0.0339959 0.392917 0.000528762)
(-0.033963 0.392917 -0.00158577)
(-0.0337987 0.392917 -0.00369417)
(-0.0335037 0.392917 -0.00578828)
(-0.033079 0.392917 -0.00785999)
(-0.0325264 0.392917 -0.0099013)
(-0.0318479 0.392917 -0.0119043)
(-0.0310462 0.392917 -0.0138612)
(-0.0301244 0.392917 -0.0157646)
(-0.029086 0.392917 -0.0176069)
(-0.0279352 0.392917 -0.0193811)
(-0.0266762 0.392917 -0.0210803)
(-0.025314 0.392917 -0.022698)
(-0.023854 0.392917 -0.0242279)
(-0.0223016 0.392917 -0.025664)
(-0.0206629 0.392917 -0.0270008)
(-0.0189443 0.392917 -0.0282332)
(-0.0171524 0.392917 -0.0293563)
(-0.0152942 0.392917 -0.0303659)
(-0.0133767 0.392917 -0.031258)
(-0.0114076 0.392917 -0.0320292)
(-0.00939426 0.392917 -0.0326764)
(-0.00734461 0.392917 -0.0331972)
(-0.00526654 0.392917 -0.0335896)
(-0.00316809 0.392917 -0.0338521)
(-0.0010574 0.392917 -0.0339836)
(0.0010574 0.392917 -0.0339836)
(0.00316809 0.392917 -0.0338521)
(0.00526654 0.392917 -0.0335896)
(0.00734461 0.392917 -0.0331972)
(0.00939426 0.392917 -0.0326764)
(0.0114076 0.392917 -0.0320292)
(0.0133767 0.392917 -0.031258)
(0.0152942 0.392917 -0.0303659)
(0.0171524 0.392917 -0.0293563)
(0.0189443 0.392917 -0.0282332)
(0.0206629 0.392917 -0.0270008)
(0.0223016 0.392917 -0.025664)
(0.023854 0.392917 -0.0242279)
(0.025314 0.392917 -0.022698)
(0.0266762 0.392917 -0.0210803)
(0.0279352 0.392917 -0.0193811)
(0.029086 0.392917 -0.0176069)
(0.0301244 0.392917 -0.0157646)
(0.0310462 0.392917 -0.0138612)
(0.0318479 0.392917 -0.0119043)
(0.0325264 0.392917 -0.0099013)
(0.033079 0.392917 -0.00785999)
(0.0335037 0.392917 -0.00578828)
(0.0337987 0.392917 -0.00369417)
(0.033963 0.392917 -0.00158577)
(0.0339959 0.392917 0.000528762)
(0.0338973 0.392917 0.00264125)
(0.0336675 0.392917 0.00474352)
(0.0333075 0.392917 0.00682744)
(0.0328186 0.392917 0.00888494)
(0.0322027 0.392917 0.0109081)
(0.0314623 0.392917 0.012889)
(0.0306001 0.392917 0.0148201)
(0.0296195 0.392917 0.0166938)
(0.0285244 0.392917 0.0185029)
(0.0273189 0.392917 0.0202405)
(0.0260077 0.392917 0.0218998)
(0.0245959 0.392917 0.0234743)
(0.0230889 0.392917 0.024958)
(0.0214926 0.392917 0.0263451)
(0.0198132 0.392917 0.0276304)
(0.0180571 0.392917 0.0288087)
(0.0162311 0.392917 0.0298756)
(0.0143424 0.392917 0.0308269)
(0.0123981 0.392917 0.0316589)
(0.010406 0.392917 0.0323685)
(0.00837348 0.392917 0.0329528)
(0.00630862 0.392917 0.0334096)
(0.00421936 0.392917 0.0337372)
)


// edges:

834
(
(12 13)
(14 15)
(15 16)
(17 18)
(19 20)
(21 22)
(23 24)
(25 26)
(27 28)
(29 30)
(31 32)
(33 34)
(35 36)
(37 38)
(39 40)
(41 42)
(43 44)
(45 46)
(47 48)
(49 50)
(51 52)
(53 54)
(55 56)
(57 58)
(59 60)
(61 62)
(63 64)
(65 66)
(67 68)
(69 70)
(71 72)
(73 74)
(75 76)
(77 78)
(79 80)
(81 82)
(83 84)
(85 86)
(87 88)
(89 90)
(91 92)
(93 94)
(95 96)
(97 98)
(99 100)
(101 102)
(103 104)
(105 106)
(107 108)
(109 110)
(111 112)
(113 114)
(114 14)
(13 115)
(115 116)
(117 118)
(119 120)
(121 122)
(123 124)
(125 126)
(127 128)
(129 130)
(131 132)
(133 134)
(135 136)
(137 138)
(139 140)
(141 142)
(143 144)
(145 146)
(147 148)
(149 150)
(151 152)
(153 154)
(155 156)
(157 158)
(159 160)
(161 162)
(163 164)
(165 166)
(167 168)
(169 170)
(171 172)
(173 174)
(175 176)
(177 178)
(179 180)
(181 182)
(183 184)
(185 186)
(187 188)
(189 190)
(191 192)
(193 194)
(195 196)
(197 198)
(199 200)
(201 202)
(203 204)
(205 206)
(207 208)
(209 210)
(211 212)
(213 12)
(16 17)
(18 19)
(20 21)
(22 23)
(24 25)
(26 27)
(28 29)
(30 31)
(32 33)
(34 35)
(36 37)
(38 39)
(40 41)
(42 43)
(44 45)
(46 47)
(48 49)
(50 51)
(52 53)
(54 55)
(56 57)
(58 59)
(60 61)
(62 63)
(64 65)
(66 67)
(68 69)
(70 71)
(72 73)
(74 75)
(76 77)
(78 79)
(80 81)
(82 83)
(84 85)
(86 87)
(88 89)
(90 91)
(92 93)
(94 95)
(96 97)
(98 99)
(100 101)
(102 103)
(104 105)
(106 107)
(108 109)
(110 111)
(112 113)
(116 117)
(118 119)
(120 121)
(122 123)
(124 125)
(126 127)
(128 129)
(130 131)
(132 133)
(134 135)
(136 137)
(138 139)
(140 141)
(142 143)
(144 145)
(146 147)
(148 149)
(150 151)
(152 153)
(154 155)
(156 157)
(158 159)
(160 161)
(162 163)
(164 165)
(166 167)
(168 169)
(170 171)
(172 173)
(174 175)
(176 177)
(178 179)
(180 181)
(182 183)
(184 185)
(186 187)
(188 189)
(190 191)
(192 193)
(194 195)
(196 197)
(198 199)
(200 201)
(202 203)
(204 205)
(206 207)
(208 209)
(210 211)
(212 213)
(0 214)
(215 0)
(214 216)
(217 218)
(219 220)
(221 222)
(223 224)
(225 226)
(227 228)
(229 230)
(231 232)
(233 234)
(235 236)
(237 238)
(239 240)
(241 242)
(243 244)
(245 246)
(247 248)
(249 250)
(251 252)
(253 254)
(255 256)
(257 258)
(259 260)
(261 262)
(263 264)
(265 266)
(266 1)
(1 267)
(267 268)
(269 270)
(271 272)
(273 241)
(216 217)
(218 219)
(220 221)
(222 223)
(224 225)
(226 227)
(228 229)
(230 231)
(232 233)
(234 235)
(236 237)
(238 239)
(240 273)
(248 249)
(244 245)
(246 247)
(250 251)
(252 253)
(254 255)
(256 257)
(258 259)
(260 261)
(262 263)
(264 265)
(268 269)
(270 271)
(272 215)
(274 243)
(242 2)
(2 275)
(275 276)
(276 277)
(278 279)
(3 280)
(281 3)
(280 282)
(282 283)
(283 284)
(285 278)
(279 281)
(284 274)
(277 285)
(286 287)
(288 289)
(289 290)
(291 292)
(293 294)
(295 296)
(297 298)
(299 300)
(301 302)
(303 304)
(305 306)
(307 308)
(309 310)
(311 312)
(313 314)
(315 316)
(317 318)
(319 320)
(321 322)
(323 324)
(325 326)
(327 328)
(329 330)
(331 332)
(333 334)
(335 336)
(337 338)
(339 340)
(341 342)
(343 344)
(345 346)
(347 348)
(349 350)
(351 352)
(353 354)
(355 356)
(357 358)
(359 360)
(361 362)
(363 364)
(365 366)
(367 368)
(369 370)
(371 372)
(373 374)
(375 376)
(377 378)
(379 380)
(381 382)
(383 384)
(385 386)
(387 388)
(388 288)
(287 389)
(389 390)
(391 392)
(393 394)
(395 396)
(397 398)
(399 400)
(401 402)
(403 404)
(405 406)
(407 408)
(409 410)
(411 412)
(413 414)
(415 416)
(417 418)
(419 420)
(421 422)
(423 424)
(425 426)
(427 428)
(429 430)
(431 432)
(433 434)
(435 436)
(437 438)
(439 440)
(441 442)
(443 444)
(445 446)
(447 448)
(449 450)
(451 452)
(453 454)
(455 456)
(457 458)
(459 460)
(461 462)
(463 464)
(465 466)
(467 468)
(469 470)
(471 472)
(473 474)
(475 476)
(477 478)
(479 480)
(481 482)
(483 484)
(485 486)
(487 286)
(290 291)
(292 293)
(294 295)
(296 297)
(298 299)
(300 301)
(302 303)
(304 305)
(306 307)
(308 309)
(310 311)
(312 313)
(314 315)
(316 317)
(318 319)
(320 321)
(322 323)
(324 325)
(326 327)
(328 329)
(330 331)
(332 333)
(334 335)
(336 337)
(338 339)
(340 341)
(342 343)
(344 345)
(346 347)
(348 349)
(350 351)
(352 353)
(354 355)
(356 357)
(358 359)
(360 361)
(362 363)
(364 365)
(366 367)