/*--------------------------------*- C++ -*----------------------------------*\
  =========                 |
  \\      /  F ield         | OpenFOAM: The Open Source CFD Toolbox
   \\    /   O peration     | Website:  https://openfoam.org
    \\  /    A nd           | Version:  10
     \\/     M anipulation  |
\*---------------------------------------------------------------------------*/
FoamFile
{
    format      ascii;
    class       featureEdgeMesh;
    location    "constant/triSurface";
    object      impeller_and_disk.eMesh;
}
// * * * * * * * * * * * * * * * * * * * * * * * * * * * * * * * * * * * * * //


// points:

4948
(
(-0.212382 0.407083 0.00708333)
(-0.112325 0.407083 0.180386)
(-0.100057 0.407083 0.18747)
(0.100057 0.407083 0.18747)
(0.112325 0.407083 0.180386)
(0.212382 0.407083 0.00708333)
(0.212382 0.407083 -0.00708333)
(0.112325 0.407083 -0.180386)
(0.100057 0.407083 -0.18747)
(-0.100057 0.407083 -0.18747)
(-0.112325 0.407083 -0.180386)
(-0.212382 0.407083 -0.00708333)
(-0.212382 0.392917 0.00708333)
(-0.112325 0.392917 0.180386)
(-0.212382 0.392917 -0.00708333)
(-0.112325 0.392917 -0.180386)
(-0.100057 0.392917 0.18747)
(0.100057 0.392917 0.18747)
(-0.100057 0.392917 -0.18747)
(0.100057 0.392917 -0.18747)
(0.112325 0.392917 0.180386)
(0.212382 0.392917 0.00708333)
(0.112325 0.392917 -0.180386)
(0.212382 0.392917 -0.00708333)
(0.008977 1.08585 0.0327935)
(-0.03005 1.12809 0.0159058)
(-0.0328885 1.11415 0.00862244)
(0.00125017 1.07191 0.033977)
(-0.0328885 1.08585 -0.00862244)
(-0.03005 1.07191 -0.0159058)
(0.008977 1.11415 -0.0327935)
(0.00125017 1.12809 -0.033977)
(0.0239115 1.08585 -0.0241711)
(0.0287999 1.07191 -0.0180712)
(0.0239115 1.11415 0.0241711)
(0.0287999 1.12809 0.0180712)
(0.0197497 1.04135 0.103126)
(0.0120229 1.02742 0.104309)
(-0.0991845 1.15865 0.0344592)
(-0.096346 1.17258 0.0417425)
(-0.0991845 1.04135 -0.0344592)
(-0.096346 1.02742 -0.0417425)
(0.0197497 1.15865 -0.103126)
(0.0120229 1.17258 -0.104309)
(0.0794348 1.04135 -0.0686667)
(0.0843231 1.02742 -0.0625668)
(0.0794348 1.15865 0.0686667)
(0.0843231 1.17258 0.0625668)
(-0.124799 0.407083 0.00708333)
(-0.0685339 0.407083 0.104538)
(-0.0562652 0.407083 0.111621)
(0.0562652 0.407083 0.111621)
(0.0685339 0.407083 0.104538)
(0.124799 0.407083 0.00708333)
(0.124799 0.407083 -0.00708333)
(0.0685339 0.407083 -0.104538)
(0.0562652 0.407083 -0.111621)
(-0.0562652 0.407083 -0.111621)
(-0.0685339 0.407083 -0.104538)
(-0.124799 0.407083 -0.00708333)
(-0.124799 0.392917 0.00708333)
(-0.124799 0.392917 -0.00708333)
(-0.0685339 0.392917 0.104538)
(-0.0562652 0.392917 0.111621)
(-0.0685339 0.392917 -0.104538)
(-0.0562652 0.392917 -0.111621)
(0.0562652 0.392917 0.111621)
(0.0685339 0.392917 0.104538)
(0.0562652 0.392917 -0.111621)
(0.0685339 0.392917 -0.104538)
(0.124799 0.392917 0.00708333)
(0.124799 0.392917 -0.00708333)
(-8.3276e-18 1.275 0.034)
(-0.00211377 1.275 0.0339342)
(-0.00421936 1.275 0.0337372)
(-0.00630862 1.275 0.0334096)
(-0.00837348 1.275 0.0329528)
(-0.010406 1.275 0.0323685)
(-0.0123981 1.275 0.0316589)
(-0.0143424 1.275 0.0308269)
(-0.0162311 1.275 0.0298756)
(-0.0180571 1.275 0.0288087)
(-0.0198132 1.275 0.0276304)
(-0.0214926 1.275 0.0263451)
(-0.0230889 1.275 0.024958)
(-0.0245959 1.275 0.0234743)
(-0.0260077 1.275 0.0218998)
(-0.0273189 1.275 0.0202405)
(-0.0285244 1.275 0.0185029)
(-0.0296195 1.275 0.0166938)
(-0.0306001 1.275 0.0148201)
(-0.0314623 1.275 0.012889)
(-0.0322027 1.275 0.0109081)
(-0.0328186 1.275 0.00888494)
(-0.0333075 1.275 0.00682744)
(-0.0336675 1.275 0.00474352)
(-0.0338973 1.275 0.00264125)
(-0.0339959 1.275 0.000528762)
(-0.033963 1.275 -0.00158577)
(-0.0337987 1.275 -0.00369417)
(-0.0335037 1.275 -0.00578828)
(-0.033079 1.275 -0.00785999)
(-0.0325264 1.275 -0.0099013)
(-0.0318479 1.275 -0.0119043)
(-0.0310462 1.275 -0.0138612)
(-0.0301244 1.275 -0.0157646)
(-0.029086 1.275 -0.0176069)
(-0.0279352 1.275 -0.0193811)
(-0.0266762 1.275 -0.0210803)
(-0.025314 1.275 -0.022698)
(-0.023854 1.275 -0.0242279)
(-0.0223016 1.275 -0.025664)
(-0.0206629 1.275 -0.0270008)
(-0.0189443 1.275 -0.0282332)
(-0.0171524 1.275 -0.0293563)
(-0.0152942 1.275 -0.0303659)
(-0.0133767 1.275 -0.031258)
(-0.0114076 1.275 -0.0320292)
(-0.00939426 1.275 -0.0326764)
(-0.00734461 1.275 -0.0331972)
(-0.00526654 1.275 -0.0335896)
(-0.00316809 1.275 -0.0338521)
(-0.0010574 1.275 -0.0339836)
(0.0010574 1.275 -0.0339836)
(0.00316809 1.275 -0.0338521)
(0.00526654 1.275 -0.0335896)
(0.00734461 1.275 -0.0331972)
(0.00939426 1.275 -0.0326764)
(0.0114076 1.275 -0.0320292)
(0.0133767 1.275 -0.031258)
(0.0152942 1.275 -0.0303659)
(0.0171524 1.275 -0.0293563)
(0.0189443 1.275 -0.0282332)
(0.0206629 1.275 -0.0270008)
(0.0223016 1.275 -0.025664)
(0.023854 1.275 -0.0242279)
(0.025314 1.275 -0.022698)
(0.0266762 1.275 -0.0210803)
(0.0279352 1.275 -0.0193811)
(0.029086 1.275 -0.0176069)
(0.0301244 1.275 -0.0157646)
(0.0310462 1.275 -0.0138612)
(0.0318479 1.275 -0.0119043)
(0.0325264 1.275 -0.0099013)
(0.033079 1.275 -0.00785999)
(0.0335037 1.275 -0.00578828)
(0.0337987 1.275 -0.00369417)
(0.033963 1.275 -0.00158577)
(0.0339959 1.275 0.000528762)
(0.0338973 1.275 0.00264125)
(0.0336675 1.275 0.00474352)
(0.0333075 1.275 0.00682744)
(0.0328186 1.275 0.00888494)
(0.0322027 1.275 0.0109081)
(0.0314623 1.275 0.012889)
(0.0306001 1.275 0.0148201)
(0.0296195 1.275 0.0166938)
(0.0285244 1.275 0.0185029)
(0.0273189 1.275 0.0202405)
(0.0260077 1.275 0.0218998)
(0.0245959 1.275 0.0234743)
(0.0230889 1.275 0.024958)
(0.0214926 1.275 0.0263451)
(0.0198132 1.275 0.0276304)
(0.0180571 1.275 0.0288087)
(0.0162311 1.275 0.0298756)
(0.0143424 1.275 0.0308269)
(0.0123981 1.275 0.0316589)
(0.010406 1.275 0.0323685)
(0.00837348 1.275 0.0329528)
(0.00630862 1.275 0.0334096)
(0.00421936 1.275 0.0337372)
(0.00211377 1.275 0.0339342)
(-2.57176e-17 1.184 0.105)
(0.00212119 1.184 0.104979)
(0.00424151 1.184 0.104914)
(0.0063601 1.184 0.104807)
(0.0084761 1.184 0.104657)
(0.0105886 1.184 0.104465)
(0.0126969 1.184 0.10423)
(0.0147999 1.184 0.103952)
(0.0168969 1.184 0.103631)
(0.018987 1.184 0.103269)
(0.0210693 1.184 0.102864)
(0.0231431 1.184 0.102418)
(0.0252074 1.184 0.101929)
(0.0272614 1.184 0.101399)
(0.0293042 1.184 0.100828)
(0.0313352 1.184 0.100215)
(0.0333533 1.184 0.0995618)
(0.0353578 1.184 0.0988677)
(0.0373479 1.184 0.0981332)
(0.0393228 1.184 0.0973587)
(0.0412816 1.184 0.0965445)
(0.0432235 1.184 0.0956908)
(0.0451478 1.184 0.0947981)
(0.0470537 1.184 0.0938667)
(0.0489404 1.184 0.0928969)
(0.0508071 1.184 0.0918893)
(0.052653 1.184 0.0908441)
(0.0544775 1.184 0.0897619)
(0.0562797 1.184 0.0886431)
(0.058059 1.184 0.087488)
(0.0598145 1.184 0.0862973)
(0.0615457 1.184 0.0850713)
(0.0632517 1.184 0.0838106)
(0.064932 1.184 0.0825157)
(0.0665857 1.184 0.0811871)
(0.0682122 1.184 0.0798254)
(0.0698109 1.184 0.0784311)
(0.0713811 1.184 0.0770048)
(0.0729222 1.184 0.075547)
(0.0744335 1.184 0.0740585)
(0.0759144 1.184 0.0725397)
(0.0773643 1.184 0.0709913)
(0.0787827 1.184 0.0694139)
(0.0801689 1.184 0.0678082)
(0.0815224 1.184 0.0661748)
(0.0828426 1.184 0.0645144)
(0.084129 1.184 0.0628276)
(0.0853811 1.184 0.0611152)
(0.0865983 1.184 0.0593779)
(0.0877801 1.184 0.0576164)
(0.0889262 1.184 0.0558313)
(0.0900359 1.184 0.0540234)
(0.0911089 1.184 0.0521935)
(0.0921447 1.184 0.0503423)
(0.0931429 1.184 0.0484705)
(0.0941031 1.184 0.046579)
(0.0950249 1.184 0.0446684)
(0.0959079 1.184 0.0427396)
(0.0967517 1.184 0.0407934)
(0.0975561 1.184 0.0388305)
(0.0983206 1.184 0.0368518)
(0.099045 1.184 0.034858)
(0.099729 1.184 0.03285)
(0.100372 1.184 0.0308286)
(0.100975 1.184 0.0287946)
(0.101536 1.184 0.0267489)
(0.102055 1.184 0.0246922)
(0.102533 1.184 0.0226255)
(0.102969 1.184 0.0205495)
(0.103364 1.184 0.0184651)
(0.103716 1.184 0.0163732)
(0.104025 1.184 0.0142747)
(0.104292 1.184 0.0121702)
(0.104517 1.184 0.0100609)
(0.104699 1.184 0.00794739)
(0.104838 1.184 0.00583066)
(0.104934 1.184 0.00371156)
(0.104988 1.184 0.00159094)
(0.104999 1.184 -0.000530331)
(0.104966 1.184 -0.00265138)
(0.104892 1.184 -0.00477136)
(0.104774 1.184 -0.00688938)
(0.104613 1.184 -0.00900459)
(0.10441 1.184 -0.0111161)
(0.104164 1.184 -0.0132231)
(0.103876 1.184 -0.0153247)
(0.103545 1.184 -0.0174201)
(0.103172 1.184 -0.0195083)
(0.102757 1.184 -0.0215886)
(0.1023 1.184 -0.0236601)
(0.101801 1.184 -0.0257219)
(0.10126 1.184 -0.0277732)
(0.100679 1.184 -0.0298131)
(0.100056 1.184 -0.0318409)
(0.0993921 1.184 -0.0338558)
(0.0986879 1.184 -0.0358567)
(0.0979434 1.184 -0.0378431)
(0.0971589 1.184 -0.039814)
(0.0963347 1.184 -0.0417687)
(0.0954713 1.184 -0.0437063)
(0.0945688 1.184 -0.045626)
(0.0936278 1.184 -0.0475272)
(0.0926486 1.184 -0.0494089)
(0.0916315 1.184 -0.0512705)
(0.0905771 1.184 -0.0531112)
(0.0894856 1.184 -0.0549302)
(0.0883577 1.184 -0.0567267)
(0.0871937 1.184 -0.0585001)
(0.0859941 1.184 -0.0602497)
(0.0847594 1.184 -0.0619746)
(0.0834901 1.184 -0.0636742)
(0.0821867 1.184 -0.0653479)
(0.0808498 1.184 -0.0669949)
(0.0794799 1.184 -0.0686145)
(0.0780775 1.184 -0.0702062)
(0.0766433 1.184 -0.0717691)
(0.0751778 1.184 -0.0733028)
(0.0736816 1.184 -0.0748066)
(0.0721553 1.184 -0.0762798)
(0.0705996 1.184 -0.0777219)
(0.0690151 1.184 -0.0791323)
(0.0674024 1.184 -0.0805104)
(0.0657622 1.184 -0.0818556)
(0.0640951 1.184 -0.0831674)
(0.0624019 1.184 -0.0844453)
(0.0606832 1.184 -0.0856887)
(0.0589398 1.184 -0.0868971)
(0.0571723 1.184 -0.08807)
(0.0553814 1.184 -0.0892071)
(0.053568 1.184 -0.0903076)
(0.0517327 1.184 -0.0913714)
(0.0498763 1.184 -0.0923978)
(0.0479995 1.184 -0.0933866)
(0.0461031 1.184 -0.0943372)
(0.0441879 1.184 -0.0952493)
(0.0422547 1.184 -0.0961225)
(0.0403042 1.184 -0.0969565)
(0.0383373 1.184 -0.097751)
(0.0363547 1.184 -0.0985055)
(0.0343573 1.184 -0.0992198)
(0.0323459 1.184 -0.0998937)
(0.0303213 1.184 -0.100527)
(0.0282842 1.184 -0.101119)
(0.0262357 1.184 -0.101669)
(0.0241764 1.184 -0.102179)
(0.0221073 1.184 -0.102646)
(0.0200292 1.184 -0.103072)
(0.0179428 1.184 -0.103456)
(0.0158492 1.184 -0.103797)
(0.0137491 1.184 -0.104096)
(0.0116433 1.184 -0.104352)
(0.00953285 1.184 -0.104566)
(0.00741848 1.184 -0.104738)
(0.00530108 1.184 -0.104866)
(0.00318151 1.184 -0.104952)
(0.00106065 1.184 -0.104995)
(-0.00106065 1.184 -0.104995)
(-0.00318151 1.184 -0.104952)
(-0.00530108 1.184 -0.104866)
(-0.00741848 1.184 -0.104738)
(-0.00953285 1.184 -0.104566)
(-0.0116433 1.184 -0.104352)
(-0.0137491 1.184 -0.104096)
(-0.0158492 1.184 -0.103797)
(-0.0179428 1.184 -0.103456)
(-0.0200292 1.184 -0.103072)
(-0.0221073 1.184 -0.102646)
(-0.0241764 1.184 -0.102179)
(-0.0262357 1.184 -0.101669)
(-0.0282842 1.184 -0.101119)
(-0.0303213 1.184 -0.100527)
(-0.0323459 1.184 -0.0998937)
(-0.0343573 1.184 -0.0992198)
(-0.0363547 1.184 -0.0985055)
(-0.0383373 1.184 -0.097751)
(-0.0403042 1.184 -0.0969565)
(-0.0422547 1.184 -0.0961225)
(-0.0441879 1.184 -0.0952493)
(-0.0461031 1.184 -0.0943372)
(-0.0479995 1.184 -0.0933866)
(-0.0498763 1.184 -0.0923978)
(-0.0517327 1.184 -0.0913714)
(-0.053568 1.184 -0.0903076)
(-0.0553814 1.184 -0.0892071)
(-0.0571723 1.184 -0.08807)
(-0.0589398 1.184 -0.0868971)
(-0.0606832 1.184 -0.0856887)
(-0.0624019 1.184 -0.0844453)
(-0.0640951 1.184 -0.0831674)
(-0.0657622 1.184 -0.0818556)
(-0.0674024 1.184 -0.0805104)
(-0.0690151 1.184 -0.0791323)
(-0.0705996 1.184 -0.0777219)
(-0.0721553 1.184 -0.0762798)
(-0.0736816 1.184 -0.0748066)
(-0.0751778 1.184 -0.0733028)
(-0.0766433 1.184 -0.0717691)
(-0.0780775 1.184 -0.0702062)
(-0.0794799 1.184 -0.0686145)
(-0.0808498 1.184 -0.0669949)
(-0.0821867 1.184 -0.0653479)
(-0.0834901 1.184 -0.0636742)
(-0.0847594 1.184 -0.0619746)
(-0.0859941 1.184 -0.0602497)
(-0.0871937 1.184 -0.0585001)
(-0.0883577 1.184 -0.0567267)
(-0.0894856 1.184 -0.0549302)
(-0.0905771 1.184 -0.0531112)
(-0.0916315 1.184 -0.0512705)
(-0.0926486 1.184 -0.0494089)
(-0.0936278 1.184 -0.0475272)
(-0.0945688 1.184 -0.045626)
(-0.0954713 1.184 -0.0437063)
(-0.0963347 1.184 -0.0417687)
(-0.0971589 1.184 -0.039814)
(-0.0979434 1.184 -0.0378431)
(-0.0986879 1.184 -0.0358567)
(-0.0993921 1.184 -0.0338558)
(-0.100056 1.184 -0.0318409)
(-0.100679 1.184 -0.0298131)
(-0.10126 1.184 -0.0277732)
(-0.101801 1.184 -0.0257219)
(-0.1023 1.184 -0.0236601)
(-0.102757 1.184 -0.0215886)
(-0.103172 1.184 -0.0195083)
(-0.103545 1.184 -0.0174201)
(-0.103876 1.184 -0.0153247)
(-0.104164 1.184 -0.0132231)
(-0.10441 1.184 -0.0111161)
(-0.104613 1.184 -0.00900459)
(-0.104774 1.184 -0.00688938)
(-0.104892 1.184 -0.00477136)
(-0.104966 1.184 -0.00265138)
(-0.104999 1.184 -0.000530331)
(-0.104988 1.184 0.00159094)
(-0.104934 1.184 0.00371156)
(-0.104838 1.184 0.00583066)
(-0.104699 1.184 0.00794739)
(-0.104517 1.184 0.0100609)
(-0.104292 1.184 0.0121702)
(-0.104025 1.184 0.0142747)
(-0.103716 1.184 0.0163732)
(-0.103364 1.184 0.0184651)
(-0.102969 1.184 0.0205495)
(-0.102533 1.184 0.0226255)
(-0.102055 1.184 0.0246922)
(-0.101536 1.184 0.0267489)
(-0.100975 1.184 0.0287946)
(-0.100372 1.184 0.0308286)
(-0.099729 1.184 0.03285)
(-0.099045 1.184 0.034858)
(-0.0983206 1.184 0.0368518)
(-0.0975561 1.184 0.0388305)
(-0.0967517 1.184 0.0407934)
(-0.0959079 1.184 0.0427396)
(-0.0950249 1.184 0.0446684)
(-0.0941031 1.184 0.046579)
(-0.0931429 1.184 0.0484705)
(-0.0921447 1.184 0.0503423)
(-0.0911089 1.184 0.0521935)
(-0.0900359 1.184 0.0540234)
(-0.0889262 1.184 0.0558313)
(-0.0877801 1.184 0.0576164)
(-0.0865983 1.184 0.0593779)
(-0.0853811 1.184 0.0611152)
(-0.084129 1.184 0.0628276)
(-0.0828426 1.184 0.0645144)
(-0.0815224 1.184 0.0661748)
(-0.0801689 1.184 0.0678082)
(-0.0787827 1.184 0.0694139)
(-0.0773643 1.184 0.0709913)
(-0.0759144 1.184 0.0725397)
(-0.0744335 1.184 0.0740585)
(-0.0729222 1.184 0.075547)
(-0.0713811 1.184 0.0770048)
(-0.0698109 1.184 0.0784311)
(-0.0682122 1.184 0.0798254)
(-0.0665857 1.184 0.0811871)
(-0.064932 1.184 0.0825157)
(-0.0632517 1.184 0.0838106)
(-0.0615457 1.184 0.0850713)
(-0.0598145 1.184 0.0862973)
(-0.058059 1.184 0.087488)
(-0.0562797 1.184 0.0886431)
(-0.0544775 1.184 0.0897619)
(-0.052653 1.184 0.0908441)
(-0.0508071 1.184 0.0918893)
(-0.0489404 1.184 0.0928969)
(-0.0470537 1.184 0.0938667)
(-0.0451478 1.184 0.0947981)
(-0.0432235 1.184 0.0956908)
(-0.0412816 1.184 0.0965445)
(-0.0393228 1.184 0.0973587)
(-0.0373479 1.184 0.0981332)
(-0.0353578 1.184 0.0988677)
(-0.0333533 1.184 0.0995618)
(-0.0313352 1.184 0.100215)
(-0.0293042 1.184 0.100828)
(-0.0272614 1.184 0.101399)
(-0.0252074 1.184 0.101929)
(-0.0231431 1.184 0.102418)
(-0.0210693 1.184 0.102864)
(-0.018987 1.184 0.103269)
(-0.0168969 1.184 0.103631)
(-0.0147999 1.184 0.103952)
(-0.0126969 1.184 0.10423)
(-0.0105886 1.184 0.104465)
(-0.0084761 1.184 0.104657)
(-0.0063601 1.184 0.104807)
(-0.00424151 1.184 0.104914)
(-0.00212119 1.184 0.104979)
(-2.57176e-17 1.05752 0.105)
(0.0014923 1.05623 0.104989)
(0.00298969 1.05495 0.104957)
(0.00449202 1.05368 0.104904)
(0.00599913 1.05241 0.104828)
(0.00751087 1.05115 0.104731)
(0.00902706 1.04989 0.104611)
(0.0105475 1.04865 0.104469)
(0.0120721 1.04741 0.104304)
(0.0136006 1.04618 0.104115)
(0.0151329 1.04496 0.103904)
(0.0166686 1.04375 0.103669)
(0.0182076 1.04254 0.103409)
(0.0187971 1.0396 0.103304)
(0.0178407 1.03786 0.103473)
(0.0168805 1.03612 0.103634)
(0.0159165 1.03437 0.103787)
(0.0149488 1.03263 0.10393)
(0.0139773 1.03089 0.104066)
(0.013002 1.02915 0.104192)
(0.0105046 1.02865 0.104473)
(0.00899035 1.02989 0.104614)
(0.00748037 1.03114 0.104733)
(0.0059748 1.03239 0.10483)
(0.00447383 1.03366 0.104905)
(0.00148628 1.0362 0.104989)
(-2.57176e-17 1.03748 0.105)
(-2.57176e-17 1.016 0.105)
(0.00212119 1.016 0.104979)
(0.00424151 1.016 0.104914)
(0.0063601 1.016 0.104807)
(0.0084761 1.016 0.104657)
(0.0105886 1.016 0.104465)
(0.0126969 1.016 0.10423)
(0.0147999 1.016 0.103952)
(0.0168969 1.016 0.103631)
(0.018987 1.016 0.103269)
(0.0210693 1.016 0.102864)
(0.0231431 1.016 0.102418)
(0.0252074 1.016 0.101929)
(0.0272614 1.016 0.101399)
(0.0293042 1.016 0.100828)
(0.0313352 1.016 0.100215)
(0.0333533 1.016 0.0995618)
(0.0353578 1.016 0.0988677)
(0.0373479 1.016 0.0981332)
(0.0393228 1.016 0.0973587)
(0.0412816 1.016 0.0965445)
(0.0432235 1.016 0.0956908)
(0.0451478 1.016 0.0947981)
(0.0470537 1.016 0.0938667)
(0.0489404 1.016 0.0928969)
(0.0508071 1.016 0.0918893)
(0.052653 1.016 0.0908441)
(0.0544775 1.016 0.0897619)
(0.0562797 1.016 0.0886431)
(0.058059 1.016 0.087488)
(0.0598145 1.016 0.0862973)
(0.0615457 1.016 0.0850713)
(0.0632517 1.016 0.0838106)
(0.064932 1.016 0.0825157)
(0.0665857 1.016 0.0811871)
(0.0682122 1.016 0.0798254)
(0.0698109 1.016 0.0784311)
(0.0713811 1.016 0.0770048)
(0.0729222 1.016 0.075547)
(0.0744335 1.016 0.0740585)
(0.0759144 1.016 0.0725397)
(0.0773643 1.016 0.0709913)
(0.0787827 1.016 0.0694139)
(0.0801689 1.016 0.0678082)
(0.0815224 1.016 0.0661748)
(0.0828426 1.016 0.0645144)
(0.084129 1.016 0.0628276)
(0.0853811 1.016 0.0611152)
(0.0865983 1.016 0.0593779)
(0.0877801 1.016 0.0576164)
(0.0889262 1.016 0.0558313)
(0.0900359 1.016 0.0540234)
(0.0911089 1.016 0.0521935)
(0.0921447 1.016 0.0503423)
(0.0931429 1.016 0.0484705)
(0.0941031 1.016 0.046579)
(0.0950249 1.016 0.0446684)
(0.0959079 1.016 0.0427396)
(0.0967517 1.016 0.0407934)
(0.0975561 1.016 0.0388305)
(0.0983206 1.016 0.0368518)
(0.099045 1.016 0.034858)
(0.099729 1.016 0.03285)
(0.100372 1.016 0.0308286)
(0.100975 1.016 0.0287946)
(0.101536 1.016 0.0267489)
(0.102055 1.016 0.0246922)
(0.102533 1.016 0.0226255)
(0.102969 1.016 0.0205495)
(0.103364 1.016 0.0184651)
(0.103716 1.016 0.0163732)
(0.104025 1.016 0.0142747)
(0.104292 1.016 0.0121702)
(0.104517 1.016 0.0100609)
(0.104699 1.016 0.00794739)
(0.104838 1.016 0.00583066)
(0.104934 1.016 0.00371156)
(0.104988 1.016 0.00159094)
(0.104999 1.016 -0.000530331)
(0.104966 1.016 -0.00265138)
(0.104892 1.016 -0.00477136)
(0.104774 1.016 -0.00688938)
(0.104613 1.016 -0.00900459)
(0.10441 1.016 -0.0111161)
(0.104164 1.016 -0.0132231)
(0.103876 1.016 -0.0153247)
(0.103545 1.016 -0.0174201)
(0.103172 1.016 -0.0195083)
(0.102757 1.016 -0.0215886)
(0.1023 1.016 -0.0236601)
(0.101801 1.016 -0.0257219)
(0.10126 1.016 -0.0277732)
(0.100679 1.016 -0.0298131)
(0.100056 1.016 -0.0318409)
(0.0993921 1.016 -0.0338558)
(0.0986879 1.016 -0.0358567)
(0.0979434 1.016 -0.0378431)
(0.0971589 1.016 -0.039814)
(0.0963347 1.016 -0.0417687)
(0.0954713 1.016 -0.0437063)
(0.0945688 1.016 -0.045626)
(0.0936278 1.016 -0.0475272)
(0.0926486 1.016 -0.0494089)
(0.0916315 1.016 -0.0512705)
(0.0905771 1.016 -0.0531112)
(0.0894856 1.016 -0.0549302)
(0.0883577 1.016 -0.0567267)
(0.0871937 1.016 -0.0585001)
(0.0859941 1.016 -0.0602497)
(0.0847594 1.016 -0.0619746)
(0.0834901 1.016 -0.0636742)
(0.0821867 1.016 -0.0653479)
(0.0808498 1.016 -0.0669949)
(0.0794799 1.016 -0.0686145)
(0.0780775 1.016 -0.0702062)
(0.0766433 1.016 -0.0717691)
(0.0751778 1.016 -0.0733028)
(0.0736816 1.016 -0.0748066)
(0.0721553 1.016 -0.0762798)
(0.0705996 1.016 -0.0777219)
(0.0690151 1.016 -0.0791323)
(0.0674024 1.016 -0.0805104)
(0.0657622 1.016 -0.0818556)
(0.0640951 1.016 -0.0831674)
(0.0624019 1.016 -0.0844453)
(0.0606832 1.016 -0.0856887)
(0.0589398 1.016 -0.0868971)
(0.0571723 1.016 -0.08807)
(0.0553814 1.016 -0.0892071)
(0.053568 1.016 -0.0903076)
(0.0517327 1.016 -0.0913714)
(0.0498763 1.016 -0.0923978)
(0.0479995 1.016 -0.0933866)
(0.0461031 1.016 -0.0943372)
(0.0441879 1.016 -0.0952493)
(0.0422547 1.016 -0.0961225)
(0.0403042 1.016 -0.0969565)
(0.0383373 1.016 -0.097751)
(0.0363547 1.016 -0.0985055)
(0.0343573 1.016 -0.0992198)
(0.0323459 1.016 -0.0998937)
(0.0303213 1.016 -0.100527)
(0.0282842 1.016 -0.101119)
(0.0262357 1.016 -0.101669)
(0.0241764 1.016 -0.102179)
(0.0221073 1.016 -0.102646)
(0.0200292 1.016 -0.103072)
(0.0179428 1.016 -0.103456)
(0.0158492 1.016 -0.103797)
(0.0137491 1.016 -0.104096)
(0.0116433 1.016 -0.104352)
(0.00953285 1.016 -0.104566)
(0.00741848 1.016 -0.104738)
(0.00530108 1.016 -0.104866)
(0.00318151 1.016 -0.104952)
(0.00106065 1.016 -0.104995)
(-0.00106065 1.016 -0.104995)
(-0.00318151 1.016 -0.104952)
(-0.00530108 1.016 -0.104866)
(-0.00741848 1.016 -0.104738)
(-0.00953285 1.016 -0.104566)
(-0.0116433 1.016 -0.104352)
(-0.0137491 1.016 -0.104096)
(-0.0158492 1.016 -0.103797)
(-0.0179428 1.016 -0.103456)
(-0.0200292 1.016 -0.103072)
(-0.0221073 1.016 -0.102646)
(-0.0241764 1.016 -0.102179)
(-0.0262357 1.016 -0.101669)
(-0.0282842 1.016 -0.101119)
(-0.0303213 1.016 -0.100527)
(-0.0323459 1.016 -0.0998937)
(-0.0343573 1.016 -0.0992198)
(-0.0363547 1.016 -0.0985055)
(-0.0383373 1.016 -0.097751)
(-0.0403042 1.016 -0.0969565)
(-0.0422547 1.016 -0.0961225)
(-0.0441879 1.016 -0.0952493)
(-0.0461031 1.016 -0.0943372)
(-0.0479995 1.016 -0.0933866)
(-0.0498763 1.016 -0.0923978)
(-0.0517327 1.016 -0.0913714)
(-0.053568 1.016 -0.0903076)
(-0.0553814 1.016 -0.0892071)
(-0.0571723 1.016 -0.08807)
(-0.0589398 1.016 -0.0868971)
(-0.0606832 1.016 -0.0856887)
(-0.0624019 1.016 -0.0844453)
(-0.0640951 1.016 -0.0831674)
(-0.0657622 1.016 -0.0818556)
(-0.0674024 1.016 -0.0805104)
(-0.0690151 1.016 -0.0791323)
(-0.0705996 1.016 -0.0777219)
(-0.0721553 1.016 -0.0762798)
(-0.0736816 1.016 -0.0748066)
(-0.0751778 1.016 -0.0733028)
(-0.0766433 1.016 -0.0717691)
(-0.0780775 1.016 -0.0702062)
(-0.0794799 1.016 -0.0686145)
(-0.0808498 1.016 -0.0669949)
(-0.0821867 1.016 -0.0653479)
(-0.0834901 1.016 -0.0636742)
(-0.0847594 1.016 -0.0619746)
(-0.0859941 1.016 -0.0602497)
(-0.0871937 1.016 -0.0585001)
(-0.0883577 1.016 -0.0567267)
(-0.0894856 1.016 -0.0549302)
(-0.0905771 1.016 -0.0531112)
(-0.0916315 1.016 -0.0512705)
(-0.0926486 1.016 -0.0494089)
(-0.0936278 1.016 -0.0475272)
(-0.0945688 1.016 -0.045626)
(-0.0954713 1.016 -0.0437063)
(-0.0963347 1.016 -0.0417687)
(-0.0971589 1.016 -0.039814)
(-0.0979434 1.016 -0.0378431)
(-0.0986879 1.016 -0.0358567)
(-0.0993921 1.016 -0.0338558)
(-0.100056 1.016 -0.0318409)
(-0.100679 1.016 -0.0298131)
(-0.10126 1.016 -0.0277732)
(-0.101801 1.016 -0.0257219)
(-0.1023 1.016 -0.0236601)
(-0.102757 1.016 -0.0215886)
(-0.103172 1.016 -0.0195083)
(-0.103545 1.016 -0.0174201)
(-0.103876 1.016 -0.0153247)
(-0.104164 1.016 -0.0132231)
(-0.10441 1.016 -0.0111161)
(-0.104613 1.016 -0.00900459)
(-0.104774 1.016 -0.00688938)
(-0.104892 1.016 -0.00477136)
(-0.104966 1.016 -0.00265138)
(-0.104999 1.016 -0.000530331)
(-0.104988 1.016 0.00159094)
(-0.104934 1.016 0.00371156)
(-0.104838 1.016 0.00583066)
(-0.104699 1.016 0.00794739)
(-0.104517 1.016 0.0100609)
(-0.104292 1.016 0.0121702)
(-0.104025 1.016 0.0142747)
(-0.103716 1.016 0.0163732)
(-0.103364 1.016 0.0184651)
(-0.102969 1.016 0.0205495)
(-0.102533 1.016 0.0226255)
(-0.102055 1.016 0.0246922)
(-0.101536 1.016 0.0267489)
(-0.100975 1.016 0.0287946)
(-0.100372 1.016 0.0308286)
(-0.099729 1.016 0.03285)
(-0.099045 1.016 0.034858)
(-0.0983206 1.016 0.0368518)
(-0.0975561 1.016 0.0388305)
(-0.0967517 1.016 0.0407934)
(-0.0959079 1.016 0.0427396)
(-0.0950249 1.016 0.0446684)
(-0.0941031 1.016 0.046579)
(-0.0931429 1.016 0.0484705)
(-0.0921447 1.016 0.0503423)
(-0.0911089 1.016 0.0521935)
(-0.0900359 1.016 0.0540234)
(-0.0889262 1.016 0.0558313)
(-0.0877801 1.016 0.0576164)
(-0.0865983 1.016 0.0593779)
(-0.0853811 1.016 0.0611152)
(-0.084129 1.016 0.0628276)
(-0.0828426 1.016 0.0645144)
(-0.0815224 1.016 0.0661748)
(-0.0801689 1.016 0.0678082)
(-0.0787827 1.016 0.0694139)
(-0.0773643 1.016 0.0709913)
(-0.0759144 1.016 0.0725397)
(-0.0744335 1.016 0.0740585)
(-0.0729222 1.016 0.075547)
(-0.0713811 1.016 0.0770048)
(-0.0698109 1.016 0.0784311)
(-0.0682122 1.016 0.0798254)
(-0.0665857 1.016 0.0811871)
(-0.064932 1.016 0.0825157)
(-0.0632517 1.016 0.0838106)
(-0.0615457 1.016 0.0850713)
(-0.0598145 1.016 0.0862973)
(-0.058059 1.016 0.087488)
(-0.0562797 1.016 0.0886431)
(-0.0544775 1.016 0.0897619)
(-0.052653 1.016 0.0908441)
(-0.0508071 1.016 0.0918893)
(-0.0489404 1.016 0.0928969)
(-0.0470537 1.016 0.0938667)
(-0.0451478 1.016 0.0947981)
(-0.0432235 1.016 0.0956908)
(-0.0412816 1.016 0.0965445)
(-0.0393228 1.016 0.0973587)
(-0.0373479 1.016 0.0981332)
(-0.0353578 1.016 0.0988677)
(-0.0333533 1.016 0.0995618)
(-0.0313352 1.016 0.100215)
(-0.0293042 1.016 0.100828)
(-0.0272614 1.016 0.101399)
(-0.0252074 1.016 0.101929)
(-0.0231431 1.016 0.102418)
(-0.0210693 1.016 0.102864)
(-0.018987 1.016 0.103269)
(-0.0168969 1.016 0.103631)
(-0.0147999 1.016 0.103952)
(-0.0126969 1.016 0.10423)
(-0.0105886 1.016 0.104465)
(-0.0084761 1.016 0.104657)
(-0.0063601 1.016 0.104807)
(-0.00424151 1.016 0.104914)
(-0.00212119 1.016 0.104979)
(-0.00159602 1.03887 0.104988)
(-0.00318584 1.04027 0.104952)
(-0.0047693 1.04167 0.104892)
(-0.00634624 1.04307 0.104808)
(-0.00791651 1.04449 0.104701)
(-0.00947995 1.04591 0.104571)
(-0.0110364 1.04733 0.104418)
(-0.0125858 1.04876 0.104243)
(-0.0141279 1.05019 0.104045)
(-0.0156626 1.05163 0.103825)
(-0.0171898 1.05308 0.103583)
(-0.0187094 1.05453 0.10332)
(-0.0202211 1.05598 0.103034)
(-0.021725 1.05743 0.102728)
(-0.0232209 1.05889 0.1024)
(-0.0247086 1.06035 0.102051)
(-0.0261881 1.06182 0.101682)
(-0.0276591 1.06329 0.101292)
(-0.0291217 1.06476 0.100881)
(-0.0305757 1.06624 0.10045)
(-0.0320209 1.06771 0.0999983)
(-0.0334573 1.06919 0.0995269)
(-0.0348847 1.07068 0.0990356)
(-0.0363031 1.07216 0.0985246)
(-0.0377122 1.07364 0.0979938)
(-0.039112 1.07513 0.0974436)
(-0.0405024 1.07662 0.0968739)
(-0.0418833 1.07811 0.0962849)
(-0.0432544 1.0796 0.0956768)
(-0.0446158 1.0811 0.0950496)
(-0.0459673 1.08259 0.0944034)
(-0.0473088 1.08408 0.0937383)
(-0.0486401 1.08558 0.0930545)
(-0.0499612 1.08707 0.092352)
(-0.0512718 1.08857 0.0916308)
(-0.0525719 1.09007 0.0908911)
(-0.0538613 1.09156 0.090133)
(-0.05514 1.09306 0.0893565)
(-0.0564077 1.09455 0.0885617)
(-0.0576644 1.09605 0.0877486)
(-0.0589098 1.09754 0.0869174)
(-0.0601439 1.09904 0.0860681)
(-0.0613665 1.10053 0.0852007)
(-0.0625775 1.10202 0.0843152)
(-0.0637766 1.10351 0.0834119)
(-0.0649638 1.105 0.0824906)
(-0.0661389 1.10649 0.0815515)
(-0.0673017 1.10797 0.0805945)
(-0.0684521 1.10945 0.0796198)
(-0.0695899 1.11094 0.0786273)
(-0.0707149 1.11241 0.077617)
(-0.0718269 1.11389 0.0765891)
(-0.0729258 1.11537 0.0755436)
(-0.0740113 1.11684 0.0744804)
(-0.0750833 1.11831 0.0733996)
(-0.0761416 1.11977 0.0723011)
(-0.077186 1.12124 0.0711852)
(-0.0782162 1.12269 0.0700516)
(-0.079232 1.12415 0.0689006)
(-0.0802333 1.1256 0.067732)
(-0.0812197 1.12705 0.0665459)
(-0.0821911 1.12849 0.0653423)
(-0.0831472 1.12993 0.0641213)
(-0.0840878 1.13136 0.0628827)
(-0.0850127 1.13279 0.0616267)
(-0.0859214 1.13422 0.0603532)
(-0.0868139 1.13564 0.0590623)
(-0.0876897 1.13705 0.0577539)
(-0.0885487 1.13845 0.0564281)
(-0.0893905 1.13986 0.0550848)
(-0.0902148 1.14125 0.0537242)
(-0.0910213 1.14264 0.0523461)
(-0.0918097 1.14402 0.0509507)
(-0.0925797 1.14539 0.0495378)
(-0.0933309 1.14676 0.0481077)
(-0.0940629 1.14811 0.0466601)
(-0.0947755 1.14946 0.0451953)
(-0.0954681 1.1508 0.0437131)
(-0.0961405 1.15214 0.0422137)
(-0.0967923 1.15346 0.0406971)
(-0.097423 1.15477 0.0391632)
(-0.0980322 1.15608 0.0376123)
(-0.0986195 1.15737 0.0360442)
(-0.0988622 1.1604 0.0353731)
(-0.0985308 1.16214 0.0362861)
(-0.0981901 1.16388 0.0371982)
(-0.0978401 1.16563 0.0381092)
(-0.0974808 1.16737 0.0390192)
(-0.0971121 1.16911 0.0399281)
(-0.0967338 1.17085 0.0408359)
(-0.0956774 1.17125 0.0432532)
(-0.0949881 1.16991 0.0447466)
(-0.0942788 1.16855 0.0462224)
(-0.0935496 1.16719 0.0476809)
(-0.0928011 1.16583 0.0491218)
(-0.0920335 1.16445 0.0505453)
(-0.0912473 1.16306 0.0519512)
(-0.0904427 1.16167 0.0533397)
(-0.08962 1.16027 0.0547106)
(-0.0887797 1.15887 0.0560639)
(-0.087922 1.15746 0.0573997)
(-0.0870472 1.15604 0.0587179)
(-0.0861555 1.15462 0.0600185)
(-0.0852474 1.15319 0.0613016)
(-0.084323 1.15176 0.062567)
(-0.0833826 1.15032 0.0638148)
(-0.0824266 1.14888 0.0650451)
(-0.081455 1.14743 0.0662577)
(-0.0804683 1.14598 0.0674526)
(-0.0794665 1.14452 0.06863)
(-0.07845 1.14306 0.0697896)
(-0.077419 1.1416 0.0709316)
(-0.0763737 1.14013 0.072056)
(-0.0753143 1.13866 0.0731625)
(-0.074241 1.13719 0.0742514)
(-0.073154 1.13571 0.0753226)
(-0.0720536 1.13423 0.0763759)
(-0.0709398 1.13275 0.0774115)
(-0.069813 1.13126 0.0784293)
(-0.0686732 1.12978 0.0794291)
(-0.0675207 1.12829 0.0804112)
(-0.0663556 1.1268 0.0813753)
(-0.0651781 1.1253 0.0823214)
(-0.0639884 1.12381 0.0832495)
(-0.0627866 1.12231 0.0841596)
(-0.0615729 1.12082 0.0850516)
(-0.0603474 1.11932 0.0859255)
(-0.0591103 1.11782 0.0867812)
(-0.0578618 1.11632 0.0876186)
(-0.0566019 1.11482 0.0884377)
(-0.0553309 1.11332 0.0892384)
(-0.0540488 1.11181 0.0900207)
(-0.0527558 1.11031 0.0907845)
(-0.0514521 1.10881 0.0915297)
(-0.0501377 1.10731 0.0922562)
(-0.0488128 1.10581 0.092964)
(-0.0474776 1.10431 0.093653)
(-0.0461321 1.10281 0.094323)
(-0.0447764 1.10131 0.094974)
(-0.0434108 1.09981 0.095606)
(-0.0420353 1.09831 0.0962187)
(-0.0406501 1.09681 0.096812)
(-0.0392552 1.09532 0.097386)
(-0.0378508 1.09383 0.0979404)
(-0.036437 1.09233 0.0984751)
(-0.0350139 1.09084 0.09899)
(-0.0335816 1.08936 0.099485)
(-0.0321403 1.08787 0.09996)
(-0.0306901 1.08639 0.100415)
(-0.0292311 1.08491 0.100849)
(-0.0277634 1.08343 0.101263)
(-0.0262871 1.08195 0.101656)
(-0.0248023 1.08048 0.102029)
(-0.0233092 1.07901 0.10238)
(-0.0218079 1.07755 0.10271)
(-0.0202985 1.07609 0.103019)
(-0.0187811 1.07463 0.103307)
(-0.017256 1.07317 0.103572)
(-0.015723 1.07173 0.103816)
(-0.0141825 1.07028 0.104038)
(-0.0126346 1.06884 0.104237)
(-0.0110793 1.0674 0.104414)
(-0.0095169 1.06597 0.104568)
(-0.00794744 1.06455 0.104699)
(-0.00637109 1.06313 0.104806)
(-0.00478802 1.06172 0.104891)
(-0.00319837 1.06031 0.104951)
(-0.00160231 1.05891 0.104988)
(-0.0988622 1.0396 -0.0353731)
(-0.0985308 1.03786 -0.0362861)
(-0.0981901 1.03612 -0.0371982)
(-0.0978401 1.03437 -0.0381092)
(-0.0974808 1.03263 -0.0390192)
(-0.0971121 1.03089 -0.0399281)
(-0.0967338 1.02915 -0.0408359)
(-0.0956843 1.02874 -0.043238)
(-0.0950024 1.03007 -0.0447163)
(-0.0943007 1.0314 -0.0461776)
(-0.0935797 1.03275 -0.0476218)
(-0.0928397 1.03411 -0.0490489)
(-0.092081 1.03547 -0.0504588)
(-0.0913039 1.03684 -0.0518516)
(-0.0905089 1.03821 -0.0532273)
(-0.0896962 1.0396 -0.0545857)