/*--------------------------------*- C++ -*----------------------------------*\
  =========                 |
  \\      /  F ield         | OpenFOAM: The Open Source CFD Toolbox
   \\    /   O peration     | Website:  https://openfoam.org
    \\  /    A nd           | Version:  10
     \\/     M anipulation  |
\*---------------------------------------------------------------------------*/
FoamFile
{
    format      ascii;
    class       featureEdgeMesh;
    location    "constant/triSurface";
    object      MRF.eMesh;
}
// * * * * * * * * * * * * * * * * * * * * * * * * * * * * * * * * * * * * * //


// points:

13430
(
(-0.0328885 1.08585 -0.00862244)
(-0.03005 1.07191 -0.0159058)
(0.00125017 1.12809 -0.033977)
(0.008977 1.11415 -0.0327935)
(-0.03005 1.12809 0.0159058)
(0.008977 1.08585 0.0327935)
(0.00125017 1.07191 0.033977)
(-0.0328885 1.11415 0.00862244)
(0.0239115 1.08585 -0.0241711)
(0.0287999 1.07191 -0.0180712)
(0.0287999 1.12809 0.0180712)
(0.0239115 1.11415 0.0241711)
(-0.2499 0.35 0.00708333)
(-0.2499 0.45 0.00708333)
(-0.124799 0.45 0.00708333)
(-0.124799 0.35 0.00708333)
(-0.124799 0.35 -0.00708333)
(-0.2499 0.45 -0.00708333)
(-0.2499 0.35 -0.00708333)
(-0.124799 0.45 -0.00708333)
(-0.131084 0.45 0.212878)
(-0.131084 0.35 0.212878)
(-0.0685339 0.35 0.104538)
(-0.0685339 0.45 0.104538)
(-0.0562652 0.35 0.111621)
(-0.0685339 0.35 -0.104538)
(-0.131084 0.35 -0.212878)
(-0.131084 0.45 -0.212878)
(-0.0685339 0.45 -0.104538)
(-0.118815 0.35 0.219961)
(-0.118815 0.45 0.219961)
(-0.0562652 0.45 0.111621)
(-0.0562652 0.35 -0.111621)
(-0.0562652 0.45 -0.111621)
(-0.118815 0.45 -0.219961)
(-0.118815 0.35 -0.219961)
(0.118815 0.45 0.219961)
(0.118815 0.35 0.219961)
(0.0562652 0.35 0.111621)
(0.0562652 0.45 0.111621)
(0.0685339 0.35 0.104538)
(0.0562652 0.35 -0.111621)
(0.118815 0.35 -0.219961)
(0.118815 0.45 -0.219961)
(0.0562652 0.45 -0.111621)
(0.131084 0.35 0.212878)
(0.131084 0.45 0.212878)
(0.0685339 0.45 0.104538)
(0.0685339 0.35 -0.104538)
(0.0685339 0.45 -0.104538)
(0.131084 0.45 -0.212878)
(0.131084 0.35 -0.212878)
(0.124799 0.35 0.00708333)
(0.124799 0.45 0.00708333)
(0.2499 0.45 0.00708333)
(0.2499 0.35 0.00708333)
(0.124799 0.35 -0.00708333)
(0.2499 0.35 -0.00708333)
(0.2499 0.45 -0.00708333)
(0.124799 0.45 -0.00708333)
(0.0450823 0.936717 0.268515)
(-0.246407 1.2733 0.100224)
(-0.255082 1.26328 0.0952153)
(0.036407 0.9267 0.263507)
(-0.255082 0.936717 -0.0952153)
(-0.246407 0.9267 -0.100224)
(0.0450823 1.26328 -0.268515)
(0.036407 1.2733 -0.263507)
(0.21 0.936717 -0.1733)
(0.21 0.9267 -0.163283)
(0.21 1.26328 0.1733)
(0.21 1.2733 0.163283)
(-0.124799 0.392917 0.00708333)
(-0.212382 0.392917 0.00708333)
(-0.112325 0.392917 0.180386)
(-0.0685339 0.392917 0.104538)
(-0.0562652 0.392917 0.111621)
(-0.100057 0.392917 0.18747)
(0.100057 0.392917 0.18747)
(0.0562652 0.392917 0.111621)
(0.0685339 0.392917 0.104538)
(0.112325 0.392917 0.180386)
(0.212382 0.392917 0.00708333)
(0.124799 0.392917 0.00708333)
(0.124799 0.392917 -0.00708333)
(0.212382 0.392917 -0.00708333)
(0.112325 0.392917 -0.180386)
(0.0685339 0.392917 -0.104538)
(0.0562652 0.392917 -0.111621)
(0.100057 0.392917 -0.18747)
(-0.100057 0.392917 -0.18747)
(-0.0562652 0.392917 -0.111621)
(-0.0685339 0.392917 -0.104538)
(-0.112325 0.392917 -0.180386)
(-0.212382 0.392917 -0.00708333)
(-0.124799 0.392917 -0.00708333)
(0.0120229 1.02742 0.104309)
(0.0197497 1.04135 0.103126)
(-0.096346 1.17258 0.0417425)
(-0.0991845 1.15865 0.0344592)
(-0.096346 1.02742 -0.0417425)
(-0.0991845 1.04135 -0.0344592)
(0.0120229 1.17258 -0.104309)
(0.0197497 1.15865 -0.103126)
(0.0843231 1.02742 -0.0625668)
(0.0794348 1.04135 -0.0686667)
(0.0843231 1.17258 0.0625668)
(0.0794348 1.15865 0.0686667)
(-0.124799 0.407083 0.00708333)
(-0.212382 0.407083 0.00708333)
(-0.112325 0.407083 0.180386)
(-0.212382 0.407083 -0.00708333)
(-0.124799 0.407083 -0.00708333)
(-0.0685339 0.407083 0.104538)
(-0.112325 0.407083 -0.180386)
(-0.0685339 0.407083 -0.104538)
(-0.0562652 0.407083 0.111621)
(-0.100057 0.407083 0.18747)
(0.100057 0.407083 0.18747)
(-0.100057 0.407083 -0.18747)
(-0.0562652 0.407083 -0.111621)
(0.0562652 0.407083 0.111621)
(0.100057 0.407083 -0.18747)
(0.0562652 0.407083 -0.111621)
(0.0685339 0.407083 0.104538)
(0.112325 0.407083 0.180386)
(0.212382 0.407083 0.00708333)
(0.112325 0.407083 -0.180386)
(0.0685339 0.407083 -0.104538)
(0.124799 0.407083 0.00708333)
(0.212382 0.407083 -0.00708333)
(0.124799 0.407083 -0.00708333)
(-0.126884 0.392917 0.00708333)
(-0.12897 0.392917 0.00708333)
(-0.131055 0.392917 0.00708333)
(-0.13314 0.392917 0.00708333)
(-0.135226 0.392917 0.00708333)
(-0.137311 0.392917 0.00708333)
(-0.139396 0.392917 0.00708333)
(-0.141482 0.392917 0.00708333)
(-0.143567 0.392917 0.00708333)
(-0.145652 0.392917 0.00708333)
(-0.147738 0.392917 0.00708333)
(-0.149823 0.392917 0.00708333)
(-0.151908 0.392917 0.00708333)
(-0.153993 0.392917 0.00708333)
(-0.156079 0.392917 0.00708333)
(-0.158164 0.392917 0.00708333)
(-0.160249 0.392917 0.00708333)
(-0.162335 0.392917 0.00708333)
(-0.16442 0.392917 0.00708333)
(-0.166505 0.392917 0.00708333)
(-0.168591 0.392917 0.00708333)
(-0.170676 0.392917 0.00708333)
(-0.172761 0.392917 0.00708333)
(-0.174846 0.392917 0.00708333)
(-0.176932 0.392917 0.00708333)
(-0.179017 0.392917 0.00708333)
(-0.181102 0.392917 0.00708333)
(-0.183188 0.392917 0.00708333)
(-0.185273 0.392917 0.00708333)
(-0.187358 0.392917 0.00708333)
(-0.189444 0.392917 0.00708333)
(-0.191529 0.392917 0.00708333)
(-0.193614 0.392917 0.00708333)
(-0.195699 0.392917 0.00708333)
(-0.197785 0.392917 0.00708333)
(-0.19987 0.392917 0.00708333)
(-0.201955 0.392917 0.00708333)
(-0.204041 0.392917 0.00708333)
(-0.206126 0.392917 0.00708333)
(-0.208211 0.392917 0.00708333)
(-0.210297 0.392917 0.00708333)
(-0.111283 0.392917 0.17858)
(-0.11024 0.392917 0.176775)
(-0.109197 0.392917 0.174969)
(-0.108155 0.392917 0.173163)
(-0.107112 0.392917 0.171357)
(-0.106069 0.392917 0.169551)
(-0.105027 0.392917 0.167745)
(-0.103984 0.392917 0.165939)
(-0.102941 0.392917 0.164133)
(-0.101899 0.392917 0.162327)
(-0.100856 0.392917 0.160521)
(-0.0998135 0.392917 0.158715)
(-0.0987708 0.392917 0.156909)
(-0.0977282 0.392917 0.155104)
(-0.0966855 0.392917 0.153298)
(-0.0956429 0.392917 0.151492)
(-0.0946002 0.392917 0.149686)
(-0.0935576 0.392917 0.14788)
(-0.0925149 0.392917 0.146074)
(-0.0914723 0.392917 0.144268)
(-0.0904296 0.392917 0.142462)
(-0.089387 0.392917 0.140656)
(-0.0883443 0.392917 0.13885)
(-0.0873016 0.392917 0.137044)
(-0.086259 0.392917 0.135238)
(-0.0852164 0.392917 0.133432)
(-0.0841737 0.392917 0.131627)
(-0.0831311 0.392917 0.12982)
(-0.0820884 0.392917 0.128015)
(-0.0810457 0.392917 0.126209)
(-0.0800031 0.392917 0.124403)
(-0.0789604 0.392917 0.122597)
(-0.0779178 0.392917 0.120791)
(-0.0768751 0.392917 0.118985)
(-0.0758325 0.392917 0.117179)
(-0.0747898 0.392917 0.115373)
(-0.0737472 0.392917 0.113567)
(-0.0727045 0.392917 0.111761)
(-0.0716619 0.392917 0.109955)
(-0.0706192 0.392917 0.108149)
(-0.0695766 0.392917 0.106344)
(-0.0668316 0.392917 0.105634)
(-0.0651117 0.392917 0.106703)
(-0.0633748 0.392917 0.107743)
(-0.0616211 0.392917 0.108756)
(-0.0598514 0.392917 0.10974)
(-0.0580659 0.392917 0.110695)
(-0.0573079 0.392917 0.113427)
(-0.0583505 0.392917 0.115233)
(-0.0593932 0.392917 0.117039)
(-0.0604358 0.392917 0.118845)
(-0.0614785 0.392917 0.120651)
(-0.0625211 0.392917 0.122456)
(-0.0635638 0.392917 0.124262)
(-0.0646064 0.392917 0.126068)
(-0.0656491 0.392917 0.127874)
(-0.0666917 0.392917 0.12968)
(-0.0677344 0.392917 0.131486)
(-0.068777 0.392917 0.133292)
(-0.0698197 0.392917 0.135098)
(-0.0708624 0.392917 0.136904)
(-0.071905 0.392917 0.13871)
(-0.0729477 0.392917 0.140516)
(-0.0739903 0.392917 0.142322)
(-0.075033 0.392917 0.144128)
(-0.0760756 0.392917 0.145933)
(-0.0771183 0.392917 0.147739)
(-0.0781609 0.392917 0.149545)
(-0.0792036 0.392917 0.151351)
(-0.0802462 0.392917 0.153157)
(-0.0812889 0.392917 0.154963)
(-0.0823315 0.392917 0.156769)
(-0.0833742 0.392917 0.158575)
(-0.0844168 0.392917 0.160381)
(-0.0854595 0.392917 0.162187)
(-0.0865021 0.392917 0.163993)
(-0.0875448 0.392917 0.165799)
(-0.0885874 0.392917 0.167605)
(-0.0896301 0.392917 0.16941)
(-0.0906727 0.392917 0.171217)
(-0.0917154 0.392917 0.173022)
(-0.0927581 0.392917 0.174828)
(-0.0938007 0.392917 0.176634)
(-0.0948434 0.392917 0.17844)
(-0.095886 0.392917 0.180246)
(-0.0969286 0.392917 0.182052)
(-0.0979713 0.392917 0.183858)
(-0.099014 0.392917 0.185664)
(0.099014 0.392917 0.185664)
(0.0979713 0.392917 0.183858)
(0.0969286 0.392917 0.182052)
(0.095886 0.392917 0.180246)
(0.0948434 0.392917 0.17844)
(0.0938007 0.392917 0.176634)
(0.0927581 0.392917 0.174828)
(0.0917154 0.392917 0.173022)
(0.0906727 0.392917 0.171217)
(0.0896301 0.392917 0.16941)
(0.0885874 0.392917 0.167605)
(0.0875448 0.392917 0.165799)
(0.0865021 0.392917 0.163993)
(0.0854595 0.392917 0.162187)
(0.0844168 0.392917 0.160381)
(0.0833742 0.392917 0.158575)
(0.0823315 0.392917 0.156769)
(0.0812889 0.392917 0.154963)
(0.0802462 0.392917 0.153157)
(0.0792036 0.392917 0.151351)
(0.0781609 0.392917 0.149545)
(0.0771183 0.392917 0.147739)
(0.0760756 0.392917 0.145933)
(0.075033 0.392917 0.144128)
(0.0739903 0.392917 0.142322)
(0.0729477 0.392917 0.140516)
(0.071905 0.392917 0.13871)
(0.0708624 0.392917 0.136904)
(0.0698197 0.392917 0.135098)
(0.068777 0.392917 0.133292)
(0.0677344 0.392917 0.131486)
(0.0666917 0.392917 0.12968)
(0.0656491 0.392917 0.127874)
(0.0646064 0.392917 0.126068)
(0.0635638 0.392917 0.124262)
(0.0625211 0.392917 0.122456)
(0.0614785 0.392917 0.120651)
(0.0604358 0.392917 0.118845)
(0.0593932 0.392917 0.117039)
(0.0583505 0.392917 0.115233)
(0.0573079 0.392917 0.113427)
(0.0580659 0.392917 0.110695)
(0.0598514 0.392917 0.10974)
(0.0616211 0.392917 0.108756)
(0.0633748 0.392917 0.107743)
(0.0651117 0.392917 0.106703)
(0.0668316 0.392917 0.105634)
(0.0695766 0.392917 0.106344)
(0.0706192 0.392917 0.108149)
(0.0716619 0.392917 0.109955)
(0.0727045 0.392917 0.111761)
(0.0737472 0.392917 0.113567)
(0.0747898 0.392917 0.115373)
(0.0758325 0.392917 0.117179)
(0.0768751 0.392917 0.118985)
(0.0779178 0.392917 0.120791)
(0.0789604 0.392917 0.122597)
(0.0800031 0.392917 0.124403)
(0.0810457 0.392917 0.126209)
(0.0820884 0.392917 0.128015)
(0.0831311 0.392917 0.12982)
(0.0841737 0.392917 0.131627)
(0.0852164 0.392917 0.133432)
(0.086259 0.392917 0.135238)
(0.0873016 0.392917 0.137044)
(0.0883443 0.392917 0.13885)
(0.089387 0.392917 0.140656)
(0.0904296 0.392917 0.142462)
(0.0914723 0.392917 0.144268)
(0.0925149 0.392917 0.146074)
(0.0935576 0.392917 0.14788)
(0.0946002 0.392917 0.149686)
(0.0956429 0.392917 0.151492)
(0.0966855 0.392917 0.153298)
(0.0977282 0.392917 0.155104)
(0.0987708 0.392917 0.156909)
(0.0998135 0.392917 0.158715)
(0.100856 0.392917 0.160521)
(0.101899 0.392917 0.162327)
(0.102941 0.392917 0.164133)
(0.103984 0.392917 0.165939)
(0.105027 0.392917 0.167745)
(0.106069 0.392917 0.169551)
(0.107112 0.392917 0.171357)
(0.108155 0.392917 0.173163)
(0.109197 0.392917 0.174969)
(0.11024 0.392917 0.176775)
(0.111283 0.392917 0.17858)
(0.210297 0.392917 0.00708333)
(0.208211 0.392917 0.00708333)
(0.206126 0.392917 0.00708333)
(0.204041 0.392917 0.00708333)
(0.201955 0.392917 0.00708333)
(0.19987 0.392917 0.00708333)
(0.197785 0.392917 0.00708333)
(0.195699 0.392917 0.00708333)
(0.193614 0.392917 0.00708333)
(0.191529 0.392917 0.00708333)
(0.189444 0.392917 0.00708333)
(0.187358 0.392917 0.00708333)
(0.185273 0.392917 0.00708333)
(0.183188 0.392917 0.00708333)
(0.181102 0.392917 0.00708333)
(0.179017 0.392917 0.00708333)
(0.176932 0.392917 0.00708333)
(0.174846 0.392917 0.00708333)
(0.172761 0.392917 0.00708333)
(0.170676 0.392917 0.00708333)
(0.168591 0.392917 0.00708333)
(0.166505 0.392917 0.00708333)
(0.16442 0.392917 0.00708333)
(0.162335 0.392917 0.00708333)
(0.160249 0.392917 0.00708333)
(0.158164 0.392917 0.00708333)
(0.156079 0.392917 0.00708333)
(0.153993 0.392917 0.00708333)
(0.151908 0.392917 0.00708333)
(0.149823 0.392917 0.00708333)
(0.147738 0.392917 0.00708333)
(0.145652 0.392917 0.00708333)
(0.143567 0.392917 0.00708333)
(0.141482 0.392917 0.00708333)
(0.139396 0.392917 0.00708333)
(0.137311 0.392917 0.00708333)
(0.135226 0.392917 0.00708333)
(0.13314 0.392917 0.00708333)
(0.131055 0.392917 0.00708333)
(0.12897 0.392917 0.00708333)
(0.126884 0.392917 0.00708333)
(0.124898 0.392917 0.00506085)
(0.124963 0.392917 0.00303704)
(0.124996 0.392917 0.00101244)
(0.124996 0.392917 -0.00101244)
(0.124963 0.392917 -0.00303704)
(0.124898 0.392917 -0.00506085)
(0.126884 0.392917 -0.00708333)
(0.12897 0.392917 -0.00708333)
(0.131055 0.392917 -0.00708333)
(0.13314 0.392917 -0.00708333)
(0.135226 0.392917 -0.00708333)
(0.137311 0.392917 -0.00708333)
(0.139396 0.392917 -0.00708333)
(0.141482 0.392917 -0.00708333)
(0.143567 0.392917 -0.00708333)
(0.145652 0.392917 -0.00708333)
(0.147738 0.392917 -0.00708333)
(0.149823 0.392917 -0.00708333)
(0.151908 0.392917 -0.00708333)
(0.153993 0.392917 -0.00708333)
(0.156079 0.392917 -0.00708333)
(0.158164 0.392917 -0.00708333)
(0.160249 0.392917 -0.00708333)
(0.162335 0.392917 -0.00708333)
(0.16442 0.392917 -0.00708333)
(0.166505 0.392917 -0.00708333)
(0.168591 0.392917 -0.00708333)
(0.170676 0.392917 -0.00708333)
(0.172761 0.392917 -0.00708333)
(0.174846 0.392917 -0.00708333)
(0.176932 0.392917 -0.00708333)
(0.179017 0.392917 -0.00708333)
(0.181102 0.392917 -0.00708333)
(0.183188 0.392917 -0.00708333)
(0.185273 0.392917 -0.00708333)
(0.187358 0.392917 -0.00708333)
(0.189444 0.392917 -0.00708333)
(0.191529 0.392917 -0.00708333)
(0.193614 0.392917 -0.00708333)
(0.195699 0.392917 -0.00708333)
(0.197785 0.392917 -0.00708333)
(0.19987 0.392917 -0.00708333)
(0.201955 0.392917 -0.00708333)
(0.204041 0.392917 -0.00708333)
(0.206126 0.392917 -0.00708333)
(0.208211 0.392917 -0.00708333)
(0.210297 0.392917 -0.00708333)
(0.111283 0.392917 -0.17858)
(0.11024 0.392917 -0.176775)
(0.109197 0.392917 -0.174969)
(0.108155 0.392917 -0.173163)
(0.107112 0.392917 -0.171357)
(0.106069 0.392917 -0.169551)
(0.105027 0.392917 -0.167745)
(0.103984 0.392917 -0.165939)
(0.102941 0.392917 -0.164133)
(0.101899 0.392917 -0.162327)
(0.100856 0.392917 -0.160521)
(0.0998135 0.392917 -0.158715)
(0.0987708 0.392917 -0.156909)
(0.0977282 0.392917 -0.155104)
(0.0966855 0.392917 -0.153298)
(0.0956429 0.392917 -0.151492)
(0.0946002 0.392917 -0.149686)
(0.0935576 0.392917 -0.14788)
(0.0925149 0.392917 -0.146074)
(0.0914723 0.392917 -0.144268)
(0.0904296 0.392917 -0.142462)
(0.089387 0.392917 -0.140656)
(0.0883443 0.392917 -0.13885)
(0.0873016 0.392917 -0.137044)
(0.086259 0.392917 -0.135238)
(0.0852164 0.392917 -0.133432)
(0.0841737 0.392917 -0.131627)
(0.0831311 0.392917 -0.12982)
(0.0820884 0.392917 -0.128015)
(0.0810457 0.392917 -0.126209)
(0.0800031 0.392917 -0.124403)
(0.0789604 0.392917 -0.122597)
(0.0779178 0.392917 -0.120791)
(0.0768751 0.392917 -0.118985)
(0.0758325 0.392917 -0.117179)
(0.0747898 0.392917 -0.115373)
(0.0737472 0.392917 -0.113567)
(0.0727045 0.392917 -0.111761)
(0.0716619 0.392917 -0.109955)
(0.0706192 0.392917 -0.108149)
(0.0695766 0.392917 -0.106344)
(0.0668316 0.392917 -0.105634)
(0.0651117 0.392917 -0.106703)
(0.0633748 0.392917 -0.107743)
(0.0616211 0.392917 -0.108756)
(0.0598514 0.392917 -0.10974)
(0.0580659 0.392917 -0.110695)
(0.0573079 0.392917 -0.113427)
(0.0583505 0.392917 -0.115233)
(0.0593932 0.392917 -0.117039)
(0.0604358 0.392917 -0.118845)
(0.0614785 0.392917 -0.120651)
(0.0625211 0.392917 -0.122456)
(0.0635638 0.392917 -0.124262)
(0.0646064 0.392917 -0.126068)
(0.0656491 0.392917 -0.127874)
(0.0666917 0.392917 -0.12968)
(0.0677344 0.392917 -0.131486)
(0.068777 0.392917 -0.133292)
(0.0698197 0.392917 -0.135098)
(0.0708624 0.392917 -0.136904)
(0.071905 0.392917 -0.13871)
(0.0729477 0.392917 -0.140516)
(0.0739903 0.392917 -0.142322)
(0.075033 0.392917 -0.144128)
(0.0760756 0.392917 -0.145933)
(0.0771183 0.392917 -0.147739)
(0.0781609 0.392917 -0.149545)
(0.0792036 0.392917 -0.151351)
(0.0802462 0.392917 -0.153157)
(0.0812889 0.392917 -0.154963)
(0.0823315 0.392917 -0.156769)
(0.0833742 0.392917 -0.158575)
(0.0844168 0.392917 -0.160381)
(0.0854595 0.392917 -0.162187)
(0.0865021 0.392917 -0.163993)
(0.0875448 0.392917 -0.165799)
(0.0885874 0.392917 -0.167605)
(0.0896301 0.392917 -0.16941)
(0.0906727 0.392917 -0.171217)
(0.0917154 0.392917 -0.173022)
(0.0927581 0.392917 -0.174828)
(0.0938007 0.392917 -0.176634)
(0.0948434 0.392917 -0.17844)
(0.095886 0.392917 -0.180246)
(0.0969286 0.392917 -0.182052)
(0.0979713 0.392917 -0.183858)
(0.099014 0.392917 -0.185664)
(-0.099014 0.392917 -0.185664)
(-0.0979713 0.392917 -0.183858)
(-0.0969286 0.392917 -0.182052)
(-0.095886 0.392917 -0.180246)
(-0.0948434 0.392917 -0.17844)
(-0.0938007 0.392917 -0.176634)
(-0.0927581 0.392917 -0.174828)
(-0.0917154 0.392917 -0.173022)
(-0.0906727 0.392917 -0.171217)
(-0.0896301 0.392917 -0.16941)
(-0.0885874 0.392917 -0.167605)
(-0.0875448 0.392917 -0.165799)
(-0.0865021 0.392917 -0.163993)
(-0.0854595 0.392917 -0.162187)
(-0.0844168 0.392917 -0.160381)
(-0.0833742 0.392917 -0.158575)
(-0.0823315 0.392917 -0.156769)
(-0.0812889 0.392917 -0.154963)
(-0.0802462 0.392917 -0.153157)
(-0.0792036 0.392917 -0.151351)
(-0.0781609 0.392917 -0.149545)
(-0.0771183 0.392917 -0.147739)
(-0.0760756 0.392917 -0.145933)
(-0.075033 0.392917 -0.144128)
(-0.0739903 0.392917 -0.142322)
(-0.0729477 0.392917 -0.140516)
(-0.071905 0.392917 -0.13871)
(-0.0708624 0.392917 -0.136904)
(-0.0698197 0.392917 -0.135098)
(-0.068777 0.392917 -0.133292)
(-0.0677344 0.392917 -0.131486)
(-0.0666917 0.392917 -0.12968)
(-0.0656491 0.392917 -0.127874)
(-0.0646064 0.392917 -0.126068)
(-0.0635638 0.392917 -0.124262)
(-0.0625211 0.392917 -0.122456)
(-0.0614785 0.392917 -0.120651)
(-0.0604358 0.392917 -0.118845)
(-0.0593932 0.392917 -0.117039)
(-0.0583505 0.392917 -0.115233)
(-0.0573079 0.392917 -0.113427)
(-0.0580659 0.392917 -0.110695)
(-0.0598514 0.392917 -0.10974)
(-0.0616211 0.392917 -0.108756)
(-0.0633748 0.392917 -0.107743)
(-0.0651117 0.392917 -0.106703)
(-0.0668316 0.392917 -0.105634)
(-0.0695766 0.392917 -0.106344)
(-0.0706192 0.392917 -0.108149)
(-0.0716619 0.392917 -0.109955)
(-0.0727045 0.392917 -0.111761)
(-0.0737472 0.392917 -0.113567)
(-0.0747898 0.392917 -0.115373)
(-0.0758325 0.392917 -0.117179)
(-0.0768751 0.392917 -0.118985)
(-0.0779178 0.392917 -0.120791)
(-0.0789604 0.392917 -0.122597)
(-0.0800031 0.392917 -0.124403)
(-0.0810457 0.392917 -0.126209)
(-0.0820884 0.392917 -0.128015)
(-0.0831311 0.392917 -0.12982)
(-0.0841737 0.392917 -0.131627)
(-0.0852164 0.392917 -0.133432)
(-0.086259 0.392917 -0.135238)
(-0.0873016 0.392917 -0.137044)
(-0.0883443 0.392917 -0.13885)
(-0.089387 0.392917 -0.140656)
(-0.0904296 0.392917 -0.142462)
(-0.0914723 0.392917 -0.144268)
(-0.0925149 0.392917 -0.146074)
(-0.0935576 0.392917 -0.14788)
(-0.0946002 0.392917 -0.149686)
(-0.0956429 0.392917 -0.151492)
(-0.0966855 0.392917 -0.153298)
(-0.0977282 0.392917 -0.155104)
(-0.0987708 0.392917 -0.156909)
(-0.0998135 0.392917 -0.158715)
(-0.100856 0.392917 -0.160521)
(-0.101899 0.392917 -0.162327)
(-0.102941 0.392917 -0.164133)
(-0.103984 0.392917 -0.165939)
(-0.105027 0.392917 -0.167745)
(-0.106069 0.392917 -0.169551)
(-0.107112 0.392917 -0.171357)
(-0.108155 0.392917 -0.173163)
(-0.109197 0.392917 -0.174969)
(-0.11024 0.392917 -0.176775)
(-0.111283 0.392917 -0.17858)
(-0.210297 0.392917 -0.00708333)
(-0.208211 0.392917 -0.00708333)
(-0.206126 0.392917 -0.00708333)
(-0.204041 0.392917 -0.00708333)
(-0.201955 0.392917 -0.00708333)
(-0.19987 0.392917 -0.00708333)
(-0.197785 0.392917 -0.00708333)
(-0.195699 0.392917 -0.00708333)
(-0.193614 0.392917 -0.00708333)
(-0.191529 0.392917 -0.00708333)
(-0.189444 0.392917 -0.00708333)
(-0.187358 0.392917 -0.00708333)
(-0.185273 0.392917 -0.00708333)
(-0.183188 0.392917 -0.00708333)
(-0.181102 0.392917 -0.00708333)
(-0.179017 0.392917 -0.00708333)
(-0.176932 0.392917 -0.00708333)
(-0.174846 0.392917 -0.00708333)
(-0.172761 0.392917 -0.00708333)
(-0.170676 0.392917 -0.00708333)
(-0.168591 0.392917 -0.00708333)
(-0.166505 0.392917 -0.00708333)
(-0.16442 0.392917 -0.00708333)
(-0.162335 0.392917 -0.00708333)
(-0.160249 0.392917 -0.00708333)
(-0.158164 0.392917 -0.00708333)
(-0.156079 0.392917 -0.00708333)
(-0.153993 0.392917 -0.00708333)
(-0.151908 0.392917 -0.00708333)
(-0.149823 0.392917 -0.00708333)
(-0.147738 0.392917 -0.00708333)
(-0.145652 0.392917 -0.00708333)
(-0.143567 0.392917 -0.00708333)
(-0.141482 0.392917 -0.00708333)
(-0.139396 0.392917 -0.00708333)
(-0.137311 0.392917 -0.00708333)
(-0.135226 0.392917 -0.00708333)
(-0.13314 0.392917 -0.00708333)
(-0.131055 0.392917 -0.00708333)
(-0.12897 0.392917 -0.00708333)
(-0.126884 0.392917 -0.00708333)
(-0.124898 0.392917 -0.00506085)
(-0.124963 0.392917 -0.00303704)
(-0.124996 0.392917 -0.00101244)
(-0.124996 0.392917 0.00101244)
(-0.124963 0.392917 0.00303704)
(-0.124898 0.392917 0.00506085)
(-2.57176e-17 1.03748 0.105)
(0.00148628 1.0362 0.104989)
(0.00297761 1.03492 0.104958)
(0.00447383 1.03366 0.104905)
(0.0059748 1.03239 0.10483)
(0.00748037 1.03114 0.104733)
(0.00899035 1.02989 0.104614)
(0.0105046 1.02865 0.104473)
(0.013002 1.02915 0.104192)
(0.0139773 1.03089 0.104066)
(0.0149488 1.03263 0.10393)
(0.0159165 1.03437 0.103787)
(0.0168805 1.03612 0.103634)
(0.0178407 1.03786 0.103473)
(0.0187971 1.0396 0.103304)
(0.0182076 1.04254 0.103409)
(0.0166686 1.04375 0.103669)
(0.0151329 1.04496 0.103904)
(0.0136006 1.04618 0.104115)
(0.0120721 1.04741 0.104304)
(0.0105475 1.04865 0.104469)
(0.00902706 1.04989 0.104611)
(0.00751087 1.05115 0.104731)
(0.00599913 1.05241 0.104828)
(0.00449202 1.05368 0.104904)
(0.00298969 1.05495 0.104957)
(0.0014923 1.05623 0.104989)
(-2.57176e-17 1.05752 0.105)
(-0.00160231 1.05891 0.104988)
(-0.00319837 1.06031 0.104951)
(-0.00478802 1.06172 0.104891)
(-0.00637109 1.06313 0.104806)
(-0.00794744 1.06455 0.104699)
(-0.0095169 1.06597 0.104568)
(-0.0110793 1.0674 0.104414)
(-0.0126346 1.06884 0.104237)
(-0.0141825 1.07028 0.104038)
(-0.015723 1.07173 0.103816)
(-0.017256 1.07317 0.103572)
(-0.0187811 1.07463 0.103307)
(-0.0202985 1.07609 0.103019)
(-0.0218079 1.07755 0.10271)
(-0.0233092 1.07901 0.10238)
(-0.0248023 1.08048 0.102029)
(-0.0262871 1.08195 0.101656)
(-0.0277634 1.08343 0.101263)
(-0.0292311 1.08491 0.100849)
(-0.0306901 1.08639 0.100415)
(-0.0321403 1.08787 0.09996)
(-0.0335816 1.08936 0.099485)
(-0.0350139 1.09084 0.09899)
(-0.036437 1.09233 0.0984751)
(-0.0378508 1.09383 0.0979404)
(-0.0392552 1.09532 0.097386)
(-0.0406501 1.09681 0.096812)
(-0.0420353 1.09831 0.0962187)
(-0.0434108 1.09981 0.095606)
(-0.0447764 1.10131 0.094974)
(-0.0461321 1.10281 0.094323)
(-0.0474776 1.10431 0.093653)
(-0.0488128 1.10581 0.092964)
(-0.0501377 1.10731 0.0922562)
(-0.0514521 1.10881 0.0915297)
(-0.0527558 1.11031 0.0907845)
(-0.0540488 1.11181 0.0900207)
(-0.0553309 1.11332 0.0892384)
(-0.0566019 1.11482 0.0884377)
(-0.0578618 1.11632 0.0876186)
(-0.0591103 1.11782 0.0867812)
(-0.0603474 1.11932 0.0859255)
(-0.0615729 1.12082 0.0850516)
(-0.0627866 1.12231 0.0841596)
(-0.0639884 1.12381 0.0832495)
(-0.0651781 1.1253 0.0823214)
(-0.0663556 1.1268 0.0813753)
(-0.0675207 1.12829 0.0804112)
(-0.0686732 1.12978 0.0794291)
(-0.069813 1.13126 0.0784293)
(-0.0709398 1.13275 0.0774115)
(-0.0720536 1.13423 0.0763759)
(-0.073154 1.13571 0.0753226)
(-0.074241 1.13719 0.0742514)
(-0.0753143 1.13866 0.0731625)
(-0.0763737 1.14013 0.072056)
(-0.077419 1.1416 0.0709316)
(-0.07845 1.14306 0.0697896)
(-0.0794665 1.14452 0.06863)
(-0.0804683 1.14598 0.0674526)
(-0.081455 1.14743 0.0662577)
(-0.0824266 1.14888 0.0650451)
(-0.0833826 1.15032 0.0638148)
(-0.084323 1.15176 0.062567)
(-0.0852474 1.15319 0.0613016)
(-0.0861555 1.15462 0.0600185)
(-0.0870472 1.15604 0.0587179)
(-0.087922 1.15746 0.0573997)
(-0.0887797 1.15887 0.0560639)
(-0.08962 1.16027 0.0547106)
(-0.0904427 1.16167 0.0533397)
(-0.0912473 1.16306 0.0519512)
(-0.0920335 1.16445 0.0505453)
(-0.0928011 1.16583 0.0491218)
(-0.0935496 1.16719 0.0476809)
(-0.0942788 1.16855 0.0462224)
(-0.0949881 1.16991 0.0447466)
(-0.0956774 1.17125 0.0432532)
(-0.0967338 1.17085 0.0408359)
(-0.0971121 1.16911 0.0399281)
(-0.0974808 1.16737 0.0390192)
(-0.0978401 1.16563 0.0381092)
(-0.0981901 1.16388 0.0371982)
(-0.0985308 1.16214 0.0362861)
(-0.0988622 1.1604 0.0353731)
(-0.0986195 1.15737 0.0360442)
(-0.0980322 1.15608 0.0376123)
(-0.097423 1.15477 0.0391632)
(-0.0967923 1.15346 0.0406971)
(-0.0961405 1.15214 0.0422137)
(-0.0954681 1.1508 0.0437131)
(-0.0947755 1.14946 0.0451953)
(-0.0940629 1.14811 0.0466601)
(-0.0933309 1.14676 0.0481077)
(-0.0925797 1.14539 0.0495378)
(-0.0918097 1.14402 0.0509507)
(-0.0910213 1.14264 0.0523461)
(-0.0902148 1.14125 0.0537242)
(-0.0893905 1.13986 0.0550848)
(-0.0885487 1.13845 0.0564281)
(-0.0876897 1.13705 0.0577539)
(-0.0868139 1.13564 0.0590623)
(-0.0859214 1.13422 0.0603532)
(-0.0850127 1.13279 0.0616267)
(-0.0840878 1.13136 0.0628827)
(-0.0831472 1.12993 0.0641213)
(-0.0821911 1.12849 0.0653423)
(-0.0812197 1.12705 0.0665459)
(-0.0802333 1.1256 0.067732)
(-0.079232 1.12415 0.0689006)
(-0.0782162 1.12269 0.0700516)
(-0.077186 1.12124 0.0711852)
(-0.0761416 1.11977 0.0723011)
(-0.0750833 1.11831 0.0733996)
(-0.0740113 1.11684 0.0744804)
(-0.0729258 1.11537 0.0755436)
(-0.0718269 1.11389 0.0765891)
(-0.0707149 1.11241 0.077617)
(-0.0695899 1.11094 0.0786273)
(-0.0684521 1.10945 0.0796198)
(-0.0673017 1.10797 0.0805945)
(-0.0661389 1.10649 0.0815515)
(-0.0649638 1.105 0.0824906)
(-0.0637766 1.10351 0.0834119)
(-0.0625775 1.10202 0.0843152)
(-0.0613665 1.10053 0.0852007)
(-0.0601439 1.09904 0.0860681)
(-0.0589098 1.09754 0.0869174)
(-0.0576644 1.09605 0.0877486)
(-0.0564077 1.09455 0.0885617)
(-0.05514 1.09306 0.0893565)
(-0.0538613 1.09156 0.090133)
(-0.0525719 1.09007 0.0908911)
(-0.0512718 1.08857 0.0916308)
(-0.0499612 1.08707 0.092352)
(-0.0486401 1.08558 0.0930545)
(-0.0473088 1.08408 0.0937383)
(-0.0459673 1.08259 0.0944034)
(-0.0446158 1.0811 0.0950496)
(-0.0432544 1.0796 0.0956768)
(-0.0418833 1.07811 0.0962849)
(-0.0405024 1.07662 0.0968739)
(-0.039112 1.07513 0.0974436)
(-0.0377122 1.07364 0.0979938)
(-0.0363031 1.07216 0.0985246)
(-0.0348847 1.07068 0.0990356)
(-0.0334573 1.06919 0.0995269)
(-0.0320209 1.06771 0.0999983)
(-0.0305757 1.06624 0.10045)
(-0.0291217 1.06476 0.100881)
(-0.0276591 1.06329 0.101292)
(-0.0261881 1.06182 0.101682)
(-0.0247086 1.06035 0.102051)
(-0.0232209 1.05889 0.1024)
(-0.021725 1.05743 0.102728)
(-0.0202211 1.05598 0.103034)
(-0.0187094 1.05453 0.10332)
(-0.0171898 1.05308 0.103583)
(-0.0156626 1.05163 0.103825)
(-0.0141279 1.05019 0.104045)
(-0.0125858 1.04876 0.104243)
(-0.0110364 1.04733 0.104418)
(-0.00947995 1.04591 0.104571)
(-0.00791651 1.04449 0.104701)
(-0.00634624 1.04307 0.104808)
(-0.0047693 1.04167 0.104892)
(-0.00318584 1.04027 0.104952)
(-0.00159602 1.03887 0.104988)
(-0.0967338 1.02915 -0.0408359)
(-0.0971121 1.03089 -0.0399281)
(-0.0974808 1.03263 -0.0390192)
(-0.0978401 1.03437 -0.0381092)
(-0.0981901 1.03612 -0.0371982)
(-0.0985308 1.03786 -0.0362861)
(-0.0988622 1.0396 -0.0353731)
(-0.0986231 1.04262 -0.0360343)
(-0.0980397 1.04391 -0.0375927)
(-0.0974347 1.0452 -0.0391342)
(-0.0968084 1.04651 -0.0406588)
(-0.0961613 1.04782 -0.0421664)
(-0.0954938 1.04915 -0.043657)
(-0.0948063 1.05048 -0.0451306)
(-0.0940991 1.05182 -0.046587)
(-0.0933727 1.05317 -0.0480264)
(-0.0926274 1.05452 -0.0494487)
(-0.0918635 1.05589 -0.0508538)
(-0.0910813 1.05726 -0.0522417)
(-0.0902812 1.05864 -0.0536125)
(-0.0894636 1.06002 -0.0549661)
(-0.0886286 1.06141 -0.0563024)
(-0.0877767 1.06281 -0.0576216)
(-0.0869081 1.06421 -0.0589236)
(-0.086023 1.06562 -0.0602083)
(-0.0851218 1.06704 -0.0614758)
(-0.0842047 1.06846 -0.0627261)
(-0.083272 1.06988 -0.0639591)
(-0.082324 1.07131 -0.0651749)
(-0.0813608 1.07274 -0.0663734)
(-0.0803827 1.07418 -0.0675546)
(-0.07939 1.07562 -0.0687185)
(-0.0783828 1.07707 -0.0698651)
(-0.0773614 1.07852 -0.0709944)
(-0.076326 1.07997 -0.0721064)
(-0.0752769 1.08143 -0.0732011)
(-0.0742141 1.08289 -0.0742783)
(-0.0731379 1.08435 -0.0753382)
(-0.0720486 1.08581 -0.0763807)
(-0.0709461 1.08728 -0.0774057)
(-0.0698309 1.08875 -0.0784133)
(-0.068703 1.09022 -0.0794034)
(-0.0675626 1.09169 -0.0803759)
(-0.0664099 1.09317 -0.081331)
(-0.065245 1.09465 -0.0822684)
(-0.0640682 1.09613 -0.0831882)
(-0.0628795 1.09761 -0.0840903)
(-0.0616791 1.09909 -0.0849747)
(-0.0604671 1.10057 -0.0858413)
(-0.0592438 1.10206 -0.0866901)
(-0.0580092 1.10354 -0.087521)
(-0.0567635 1.10503 -0.088334)
(-0.0555069 1.10651 -0.089129)
(-0.0542394 1.108 -0.089906)
(-0.0529613 1.10948 -0.0906648)
(-0.0516725 1.11097 -0.0914054)
(-0.0503733 1.11246 -0.0921278)
(-0.0490639 1.11394 -0.0928318)
(-0.0477442 1.11543 -0.0935173)
(-0.0464144 1.11691 -0.0941844)
(-0.0450747 1.1184 -0.0948328)
(-0.0437252 1.11988 -0.0954626)
(-0.042366 1.12136 -0.0960735)
(-0.0409972 1.12285 -0.0966655)
(-0.039619 1.12433 -0.0972386)
(-0.0382314 1.1258 -0.0977924)
(-0.0368345 1.12728 -0.0983271)
(-0.0354285 1.12876 -0.0988424)
(-0.0340135 1.13023 -0.0993382)
(-0.0325896 1.1317 -0.0998144)
(-0.0311569 1.13317 -0.100271)
(-0.0297156 1.13464 -0.100707)
(-0.0282657 1.1361 -0.101124)
(-0.0268073 1.13756 -0.10152)
(-0.0253407 1.13902 -0.101896)
(-0.0238658 1.14048 -0.102252)
(-0.0223828 1.14193 -0.102587)
(-0.0208919 1.14338 -0.102901)
(-0.0193931 1.14482 -0.103193)
(-0.0178866 1.14626 -0.103465)
(-0.0163724 1.1477 -0.103716)
(-0.0148508 1.14913 -0.103945)
(-0.0133219 1.15056 -0.104152)
(-0.0117856 1.15198 -0.104337)
(-0.0102424 1.1534 -0.104499)
(-0.00869213 1.15481 -0.10464)
(-0.00713508 1.15622 -0.104757)
(-0.00557136 1.15762 -0.104852)
(-0.00400112 1.15901 -0.104924)
(-0.00242452 1.1604 -0.104972)
(-0.000841719 1.16179 -0.104997)
(0.000747124 1.16316 -0.104997)
(0.00234184 1.16453 -0.104974)
(0.00394224 1.16589 -0.104926)
(0.00554815 1.16725 -0.104853)
(0.00715938 1.16859 -0.104756)
(0.00877572 1.16993 -0.104633)
(0.010397 1.17126 -0.104484)
(0.013002 1.17085 -0.104192)
(0.0139773 1.16911 -0.104066)
(0.0149488 1.16737 -0.10393)