/*--------------------------------*- C++ -*----------------------------------*\
  =========                 |
  \\      /  F ield         | OpenFOAM: The Open Source CFD Toolbox
   \\    /   O peration     | Website:  https://openfoam.org
    \\  /    A nd           | Version:  10
     \\/     M anipulation  |
\*---------------------------------------------------------------------------*/
FoamFile
{
    format      ascii;
    class       featureEdgeMesh;
    location    "constant/triSurface";
    object      pitched_blades.eMesh;
}
// * * * * * * * * * * * * * * * * * * * * * * * * * * * * * * * * * * * * * //


// points:

3366
(
(0.0794348 1.04135 -0.0686667)
(0.21 0.936717 -0.1733)
(0.21 0.9267 -0.163283)
(0.0843231 1.02742 -0.0625668)
(0.0843231 1.17258 0.0625668)
(0.21 1.2733 0.163283)
(0.21 1.26328 0.1733)
(0.0794348 1.15865 0.0686667)
(-0.0991845 1.04135 -0.0344592)
(-0.255082 0.936717 -0.0952153)
(-0.246407 0.9267 -0.100224)
(-0.096346 1.02742 -0.0417425)
(0.0120229 1.17258 -0.104309)
(0.036407 1.2733 -0.263507)
(0.0450823 1.26328 -0.268515)
(0.0197497 1.15865 -0.103126)
(0.0197497 1.04135 0.103126)
(0.0450823 0.936717 0.268515)
(0.036407 0.9267 0.263507)
(0.0120229 1.02742 0.104309)
(-0.096346 1.17258 0.0417425)
(-0.246407 1.2733 0.100224)
(-0.255082 1.26328 0.0952153)
(-0.0991845 1.15865 0.0344592)
(0.0808387 1.04023 -0.0697918)
(0.0800652 1.0396 -0.0679306)
(0.0822426 1.0391 -0.0709169)
(0.0836466 1.03797 -0.072042)
(0.0850505 1.03685 -0.0731671)
(0.0864544 1.03572 -0.0742922)
(0.0878583 1.0346 -0.0754173)
(0.0892623 1.03348 -0.0765423)
(0.0906662 1.03235 -0.0776674)
(0.0920701 1.03122 -0.0787925)
(0.093474 1.0301 -0.0799176)
(0.094878 1.02898 -0.0810427)
(0.0962819 1.02785 -0.0821678)
(0.0976858 1.02672 -0.0832929)
(0.0990897 1.0256 -0.084418)
(0.100494 1.02447 -0.0855431)
(0.101898 1.02335 -0.0866682)
(0.103302 1.02222 -0.0877933)
(0.104705 1.0211 -0.0889183)
(0.106109 1.01997 -0.0900434)
(0.107513 1.01885 -0.0911685)
(0.108917 1.01772 -0.0922936)
(0.110321 1.0166 -0.0934187)
(0.111725 1.01547 -0.0945438)
(0.113129 1.01435 -0.0956689)
(0.114533 1.01322 -0.096794)
(0.115937 1.0121 -0.0979191)
(0.117341 1.01097 -0.0990442)
(0.118745 1.00985 -0.100169)
(0.120149 1.00872 -0.101294)
(0.121553 1.0076 -0.102419)
(0.122956 1.00647 -0.103545)
(0.12436 1.00535 -0.10467)
(0.125764 1.00422 -0.105795)
(0.127168 1.0031 -0.10692)
(0.128572 1.00197 -0.108045)
(0.129976 1.00085 -0.10917)
(0.13138 0.999722 -0.110295)
(0.132784 0.998597 -0.11142)
(0.134188 0.997472 -0.112545)
(0.135592 0.996347 -0.11367)
(0.136996 0.995222 -0.114795)
(0.1384 0.994097 -0.11592)
(0.139804 0.992972 -0.117046)
(0.141208 0.991847 -0.118171)
(0.142612 0.990722 -0.119296)
(0.144015 0.989596 -0.120421)
(0.145419 0.988471 -0.121546)
(0.146823 0.987346 -0.122671)
(0.148227 0.986221 -0.123796)
(0.149631 0.985096 -0.124921)
(0.151035 0.983971 -0.126046)
(0.152439 0.982846 -0.127171)
(0.153843 0.981721 -0.128296)
(0.155247 0.980596 -0.129422)
(0.156651 0.979471 -0.130547)
(0.158055 0.978346 -0.131672)
(0.159459 0.97722 -0.132797)
(0.160863 0.976095 -0.133922)
(0.162266 0.97497 -0.135047)
(0.16367 0.973845 -0.136172)
(0.165074 0.97272 -0.137297)
(0.166478 0.971595 -0.138422)
(0.167882 0.97047 -0.139547)
(0.169286 0.969345 -0.140673)
(0.17069 0.96822 -0.141798)
(0.172094 0.967095 -0.142923)
(0.173498 0.96597 -0.144048)
(0.174902 0.964845 -0.145173)
(0.176306 0.963719 -0.146298)
(0.17771 0.962594 -0.147423)
(0.179114 0.961469 -0.148548)
(0.180517 0.960344 -0.149673)
(0.181921 0.959219 -0.150798)
(0.183325 0.958094 -0.151923)
(0.184729 0.956969 -0.153049)
(0.186133 0.955844 -0.154174)
(0.187537 0.954719 -0.155299)
(0.188941 0.953594 -0.156424)
(0.190345 0.952469 -0.157549)
(0.191749 0.951343 -0.158674)
(0.193153 0.950218 -0.159799)
(0.194557 0.949093 -0.160924)
(0.195961 0.947968 -0.162049)
(0.197365 0.946843 -0.163174)
(0.198769 0.945718 -0.164299)
(0.200172 0.944593 -0.165424)
(0.201576 0.943468 -0.16655)
(0.20298 0.942343 -0.167675)
(0.204384 0.941218 -0.1688)
(0.205788 0.940093 -0.169925)
(0.207192 0.938967 -0.17105)
(0.208596 0.937842 -0.172175)
(0.21 0.935286 -0.171869)
(0.21 0.933855 -0.170438)
(0.21 0.932424 -0.169007)
(0.21 0.930993 -0.167576)
(0.21 0.929562 -0.166145)
(0.21 0.928131 -0.164714)
(0.208604 0.927819 -0.162164)
(0.207207 0.928938 -0.161045)
(0.205811 0.930057 -0.159926)
(0.204414 0.931176 -0.158807)
(0.203018 0.932295 -0.157687)
(0.201622 0.933414 -0.156568)
(0.200225 0.934533 -0.155449)
(0.198829 0.935652 -0.15433)
(0.197432 0.936772 -0.153211)
(0.196036 0.937891 -0.152092)
(0.19464 0.93901 -0.150973)
(0.193243 0.940129 -0.149854)
(0.191847 0.941248 -0.148735)
(0.19045 0.942367 -0.147616)
(0.189054 0.943486 -0.146497)
(0.187657 0.944605 -0.145378)
(0.186261 0.945724 -0.144259)
(0.184865 0.946843 -0.14314)
(0.183468 0.947962 -0.14202)
(0.182072 0.949081 -0.140901)
(0.180675 0.9502 -0.139782)
(0.179279 0.951319 -0.138663)
(0.177883 0.952438 -0.137544)
(0.176486 0.953557 -0.136425)
(0.17509 0.954677 -0.135306)
(0.173693 0.955796 -0.134187)
(0.172297 0.956915 -0.133068)
(0.1709 0.958034 -0.131949)
(0.169504 0.959153 -0.13083)
(0.168108 0.960272 -0.129711)
(0.166711 0.961391 -0.128592)
(0.165315 0.96251 -0.127473)
(0.163918 0.963629 -0.126354)
(0.162522 0.964748 -0.125234)
(0.161126 0.965867 -0.124115)
(0.159729 0.966986 -0.122996)
(0.158333 0.968105 -0.121877)
(0.156936 0.969224 -0.120758)
(0.15554 0.970343 -0.119639)
(0.154144 0.971462 -0.11852)
(0.152747 0.972582 -0.117401)
(0.151351 0.973701 -0.116282)
(0.149954 0.97482 -0.115163)
(0.148558 0.975939 -0.114044)
(0.147162 0.977058 -0.112925)
(0.145765 0.978177 -0.111806)
(0.144369 0.979296 -0.110687)
(0.142972 0.980415 -0.109568)
(0.141576 0.981534 -0.108448)
(0.140179 0.982653 -0.10733)
(0.138783 0.983772 -0.10621)
(0.137387 0.984891 -0.105091)
(0.13599 0.98601 -0.103972)
(0.134594 0.98713 -0.102853)
(0.133198 0.988249 -0.101734)
(0.131801 0.989368 -0.100615)
(0.130405 0.990487 -0.099496)
(0.129008 0.991606 -0.0983769)
(0.127612 0.992725 -0.0972579)
(0.126215 0.993844 -0.0961388)
(0.124819 0.994963 -0.0950197)
(0.123423 0.996082 -0.0939007)
(0.122026 0.997201 -0.0927816)
(0.12063 0.99832 -0.0916625)
(0.119233 0.999439 -0.0905435)
(0.117837 1.00056 -0.0894244)
(0.116441 1.00168 -0.0883053)
(0.115044 1.0028 -0.0871863)
(0.113648 1.00391 -0.0860672)
(0.112251 1.00503 -0.0849482)
(0.110855 1.00615 -0.0838291)
(0.109458 1.00727 -0.08271)
(0.108062 1.00839 -0.081591)
(0.106666 1.00951 -0.0804719)
(0.105269 1.01063 -0.0793528)
(0.103873 1.01175 -0.0782338)
(0.102476 1.01287 -0.0771147)
(0.10108 1.01399 -0.0759956)
(0.0996836 1.01511 -0.0748766)
(0.0982872 1.01622 -0.0737575)
(0.0968908 1.01734 -0.0726384)
(0.0954944 1.01846 -0.0715194)
(0.094098 1.01958 -0.0704003)
(0.0927016 1.0207 -0.0692812)
(0.0913052 1.02182 -0.0681622)
(0.0899088 1.02294 -0.0670431)
(0.0885124 1.02406 -0.065924)
(0.087116 1.02518 -0.064805)
(0.0857195 1.0263 -0.0636859)
(0.0837318 1.02915 -0.063356)
(0.0831347 1.03089 -0.0641375)
(0.082532 1.03263 -0.0649113)
(0.0819236 1.03437 -0.0656774)
(0.0813096 1.03612 -0.066436)
(0.0806901 1.03786 -0.0671871)
(0.0805182 1.04262 -0.067393)
(0.0815761 1.04391 -0.0661085)
(0.0826086 1.0452 -0.0648138)
(0.0836157 1.04651 -0.0635091)
(0.0845978 1.04782 -0.0621949)
(0.085555 1.04915 -0.0608716)
(0.0864874 1.05048 -0.0595394)
(0.0873951 1.05182 -0.0581987)
(0.0882784 1.05317 -0.0568499)
(0.0891375 1.05452 -0.0554933)
(0.0899724 1.05589 -0.0541292)
(0.0907833 1.05726 -0.0527579)
(0.0915704 1.05864 -0.0513796)
(0.0923338 1.06002 -0.0499947)
(0.0930737 1.06141 -0.0486034)
(0.0937901 1.06281 -0.047206)
(0.0944834 1.06421 -0.0458028)
(0.0951534 1.06562 -0.0443939)
(0.0958005 1.06704 -0.0429797)
(0.0964248 1.06846 -0.0415604)
(0.0970262 1.06988 -0.0401362)
(0.0976051 1.07131 -0.0387072)
(0.0981614 1.07274 -0.0372738)
(0.0986953 1.07418 -0.0358362)
(0.0992069 1.07562 -0.0343945)
(0.0996964 1.07707 -0.0329489)
(0.100164 1.07852 -0.0314997)
(0.100609 1.07997 -0.0300471)
(0.101032 1.08143 -0.0285912)
(0.101434 1.08289 -0.0271321)
(0.101814 1.08435 -0.0256702)
(0.102172 1.08581 -0.0242055)
(0.102508 1.08728 -0.0227383)
(0.102823 1.08875 -0.0212687)
(0.103117 1.09022 -0.0197969)
(0.103389 1.09169 -0.018323)
(0.10364 1.09317 -0.0168472)
(0.103869 1.09465 -0.0153697)
(0.104077 1.09613 -0.0138906)
(0.104264 1.09761 -0.0124101)
(0.10443 1.09909 -0.0109283)
(0.104574 1.10057 -0.00944542)
(0.104698 1.10206 -0.00796159)
(0.1048 1.10354 -0.00647696)
(0.104881 1.10503 -0.00499167)
(0.104942 1.10651 -0.00350588)
(0.104981 1.108 -0.00201975)
(0.104999 1.10948 -0.000533407)
(0.104996 1.11097 0.000952987)
(0.104972 1.11246 0.00243928)
(0.104927 1.11394 0.00392534)
(0.10486 1.11543 0.005411)
(0.104773 1.11691 0.00689611)
(0.104665 1.1184 0.00838054)
(0.104536 1.11988 0.00986411)
(0.104385 1.12136 0.0113467)
(0.104213 1.12285 0.0128281)
(0.10402 1.12433 0.0143082)
(0.103806 1.1258 0.0157869)
(0.103571 1.12728 0.017264)
(0.103314 1.12876 0.0187392)
(0.103036 1.13023 0.0202125)
(0.102737 1.1317 0.0216838)
(0.102416 1.13317 0.0231527)
(0.102073 1.13464 0.0246192)
(0.101709 1.1361 0.0260832)
(0.101323 1.13756 0.0275443)
(0.100915 1.13902 0.0290025)
(0.100486 1.14048 0.0304575)
(0.100034 1.14193 0.0319092)
(0.0995605 1.14338 0.0333574)
(0.0990648 1.14482 0.0348018)
(0.0985469 1.14626 0.0362424)
(0.0980066 1.1477 0.0376789)
(0.097444 1.14913 0.039111)
(0.0968587 1.15056 0.0405387)
(0.0962509 1.15198 0.0419616)
(0.0956202 1.1534 0.0433795)
(0.0949666 1.15481 0.0447922)
(0.09429 1.15622 0.0461995)
(0.0935903 1.15762 0.0476011)
(0.0928672 1.15901 0.0489968)
(0.0921207 1.1604 0.0503863)
(0.0913506 1.16179 0.0517694)
(0.0905568 1.16316 0.0531457)
(0.0897391 1.16453 0.054515)
(0.0888974 1.16589 0.0558771)
(0.0880316 1.16725 0.0572315)
(0.0871413 1.16859 0.058578)
(0.0862266 1.16993 0.0599163)
(0.0852873 1.17126 0.061246)
(0.0857195 1.1737 0.0636859)
(0.087116 1.17482 0.064805)
(0.0885124 1.17594 0.065924)
(0.0899088 1.17706 0.0670431)
(0.0913052 1.17818 0.0681622)
(0.0927016 1.1793 0.0692812)
(0.094098 1.18042 0.0704003)
(0.0954944 1.18154 0.0715194)
(0.0968908 1.18266 0.0726384)
(0.0982872 1.18377 0.0737575)
(0.0996836 1.18489 0.0748766)
(0.10108 1.18601 0.0759956)
(0.102476 1.18713 0.0771147)
(0.103873 1.18825 0.0782338)
(0.105269 1.18937 0.0793528)
(0.106666 1.19049 0.0804719)
(0.108062 1.19161 0.081591)
(0.109458 1.19273 0.08271)
(0.110855 1.19385 0.0838291)
(0.112251 1.19497 0.0849482)
(0.113648 1.19608 0.0860672)
(0.115044 1.1972 0.0871863)
(0.116441 1.19832 0.0883053)
(0.117837 1.19944 0.0894244)
(0.119233 1.20056 0.0905435)
(0.12063 1.20168 0.0916625)
(0.122026 1.2028 0.0927816)
(0.123423 1.20392 0.0939007)
(0.124819 1.20504 0.0950197)
(0.126215 1.20616 0.0961388)
(0.127612 1.20728 0.0972579)
(0.129008 1.20839 0.0983769)
(0.130405 1.20951 0.099496)
(0.131801 1.21063 0.100615)
(0.133198 1.21175 0.101734)
(0.134594 1.21287 0.102853)
(0.13599 1.21399 0.103972)
(0.137387 1.21511 0.105091)
(0.138783 1.21623 0.10621)
(0.140179 1.21735 0.10733)
(0.141576 1.21847 0.108448)
(0.142972 1.21958 0.109568)
(0.144369 1.2207 0.110687)
(0.145765 1.22182 0.111806)
(0.147162 1.22294 0.112925)
(0.148558 1.22406 0.114044)
(0.149954 1.22518 0.115163)
(0.151351 1.2263 0.116282)
(0.152747 1.22742 0.117401)
(0.154144 1.22854 0.11852)
(0.15554 1.22966 0.119639)
(0.156936 1.23078 0.120758)
(0.158333 1.23189 0.121877)
(0.159729 1.23301 0.122996)
(0.161126 1.23413 0.124115)
(0.162522 1.23525 0.125234)
(0.163918 1.23637 0.126354)
(0.165315 1.23749 0.127473)
(0.166711 1.23861 0.128592)
(0.168108 1.23973 0.129711)
(0.169504 1.24085 0.13083)
(0.1709 1.24197 0.131949)
(0.172297 1.24309 0.133068)
(0.173693 1.2442 0.134187)
(0.17509 1.24532 0.135306)
(0.176486 1.24644 0.136425)
(0.177883 1.24756 0.137544)
(0.179279 1.24868 0.138663)
(0.180675 1.2498 0.139782)
(0.182072 1.25092 0.140901)
(0.183468 1.25204 0.14202)
(0.184865 1.25316 0.14314)
(0.186261 1.25428 0.144259)
(0.187657 1.2554 0.145378)
(0.189054 1.25651 0.146497)
(0.19045 1.25763 0.147616)
(0.191847 1.25875 0.148735)
(0.193243 1.25987 0.149854)
(0.19464 1.26099 0.150973)
(0.196036 1.26211 0.152092)
(0.197432 1.26323 0.153211)
(0.198829 1.26435 0.15433)
(0.200225 1.26547 0.155449)
(0.201622 1.26659 0.156568)
(0.203018 1.2677 0.157687)
(0.204414 1.26882 0.158807)
(0.205811 1.26994 0.159926)
(0.207207 1.27106 0.161045)
(0.208604 1.27218 0.162164)
(0.21185 1.27257 0.162549)
(0.213692 1.27182 0.161805)
(0.215526 1.27107 0.16105)
(0.217351 1.2703 0.160286)
(0.219168 1.26953 0.159512)
(0.220977 1.26874 0.158727)
(0.222776 1.26795 0.157933)
(0.224567 1.26715 0.157129)
(0.226349 1.26633 0.156315)
(0.228122 1.26551 0.155491)
(0.229886 1.26468 0.154658)
(0.231641 1.26383 0.153814)
(0.233386 1.26298 0.152962)
(0.235121 1.26212 0.152099)
(0.236848 1.26125 0.151227)
(0.238564 1.26036 0.150346)
(0.240271 1.25947 0.149455)
(0.241968 1.25857 0.148555)
(0.243655 1.25766 0.147645)
(0.245332 1.25674 0.146726)
(0.246998 1.25582 0.145798)
(0.248655 1.25488 0.144861)
(0.250301 1.25393 0.143915)
(0.251936 1.25298 0.142959)
(0.253561 1.25201 0.141995)
(0.255176 1.25104 0.141022)
(0.256779 1.25006 0.140039)
(0.258372 1.24907 0.139049)
(0.259954 1.24807 0.138049)
(0.261524 1.24706 0.13704)
(0.263084 1.24604 0.136024)
(0.264632 1.24502 0.134998)
(0.266169 1.24398 0.133964)
(0.267694 1.24294 0.132922)
(0.269208 1.24189 0.131871)
(0.27071 1.24083 0.130811)
(0.272201 1.23976 0.129744)
(0.27368 1.23869 0.128669)
(0.275147 1.2376 0.127585)
(0.276602 1.23651 0.126493)
(0.278044 1.23541 0.125393)
(0.279475 1.2343 0.124286)
(0.280894 1.23319 0.12317)
(0.2823 1.23206 0.122047)
(0.283693 1.23093 0.120916)
(0.285075 1.22979 0.119777)
(0.286443 1.22865 0.118631)
(0.287799 1.22749 0.117477)
(0.289142 1.22633 0.116316)
(0.290472 1.22517 0.115148)
(0.29179 1.22399 0.113972)
(0.293094 1.22281 0.112789)
(0.294386 1.22162 0.111599)
(0.295664 1.22042 0.110402)
(0.296929 1.21922 0.109197)
(0.29818 1.218 0.107986)
(0.299419 1.21679 0.106768)
(0.300643 1.21556 0.105543)
(0.301855 1.21433 0.104312)
(0.303052 1.21309 0.103074)
(0.304236 1.21185 0.101829)
(0.305407 1.2106 0.100578)
(0.306563 1.20934 0.0993202)
(0.307705 1.20807 0.0980562)
(0.308834 1.2068 0.096786)
(0.309949 1.20553 0.0955096)
(0.311049 1.20424 0.0942272)
(0.312135 1.20296 0.0929387)
(0.313207 1.20166 0.0916442)
(0.314265 1.20036 0.0903439)
(0.315309 1.19905 0.0890378)
(0.316337 1.19774 0.087726)
(0.317352 1.19643 0.0864085)
(0.318352 1.1951 0.0850855)
(0.319337 1.19377 0.0837571)
(0.320308 1.19244 0.0824232)
(0.321264 1.1911 0.0810841)
(0.322205 1.18976 0.0797397)
(0.323131 1.18841 0.0783902)
(0.324043 1.18705 0.0770356)
(0.324939 1.18569 0.075676)
(0.325821 1.18433 0.0743116)
(0.326687 1.18296 0.0729423)
(0.327538 1.18159 0.0715683)
(0.328375 1.18021 0.0701896)
(0.329195 1.17882 0.0688064)
(0.330001 1.17744 0.0674187)
(0.330791 1.17604 0.0660266)
(0.331566 1.17465 0.0646302)
(0.332326 1.17325 0.0632296)
(0.33307 1.17184 0.0618248)
(0.333799 1.17043 0.0604159)
(0.334512 1.16902 0.0590031)
(0.335209 1.1676 0.0575864)
(0.335891 1.16618 0.0561659)
(0.336557 1.16476 0.0547418)
(0.337208 1.16333 0.0533139)
(0.337842 1.1619 0.0518826)
(0.338461 1.16047 0.0504477)
(0.339064 1.15903 0.0490095)
(0.339652 1.15759 0.0475681)
(0.340223 1.15614 0.0461234)
(0.340778 1.15469 0.0446756)
(0.341318 1.15324 0.0432249)
(0.341841 1.15179 0.0417712)
(0.342349 1.15033 0.0403146)
(0.34284 1.14887 0.0388553)
(0.343315 1.14741 0.0373934)
(0.343774 1.14595 0.0359288)
(0.344217 1.14448 0.0344618)
(0.344644 1.14301 0.0329924)
(0.345055 1.14154 0.0315207)
(0.345449 1.14006 0.0300467)
(0.345827 1.13859 0.0285707)
(0.346189 1.13711 0.0270926)
(0.346534 1.13563 0.0256125)
(0.346864 1.13415 0.0241306)
(0.347177 1.13266 0.0226469)
(0.347473 1.13118 0.0211616)
(0.347753 1.12969 0.0196746)
(0.348017 1.1282 0.0181862)
(0.348264 1.12671 0.0166964)
(0.348495 1.12522 0.0152052)
(0.34871 1.12373 0.0137128)
(0.348908 1.12224 0.0122193)
(0.349089 1.12074 0.0107247)
(0.349254 1.11925 0.00922914)
(0.349403 1.11775 0.00773274)
(0.349535 1.11625 0.00623557)
(0.349651 1.11476 0.00473772)
(0.34975 1.11326 0.00323928)
(0.349833 1.11176 0.00174033)
(0.349899 1.11026 0.000240979)
(0.349948 1.10876 -0.00125869)
(0.349981 1.10726 -0.00275859)
(0.349998 1.10576 -0.00425863)
(0.349998 1.10426 -0.00575871)
(0.349981 1.10276 -0.00725875)
(0.349948 1.10126 -0.00875865)
(0.349899 1.09976 -0.0102583)
(0.349833 1.09826 -0.0117577)
(0.34975 1.09676 -0.0132566)
(0.349651 1.09526 -0.0147551)
(0.349535 1.09376 -0.0162529)
(0.349403 1.09227 -0.0177501)
(0.349254 1.09077 -0.0192465)
(0.349089 1.08928 -0.020742)
(0.348908 1.08778 -0.0222366)
(0.34871 1.08629 -0.0237301)
(0.348495 1.08479 -0.0252225)
(0.348264 1.0833 -0.0267137)
(0.348017 1.08181 -0.0282035)
(0.347753 1.08033 -0.029692)
(0.347473 1.07884 -0.0311789)
(0.347177 1.07735 -0.0326643)
(0.346864 1.07587 -0.034148)
(0.346534 1.07439 -0.0356299)
(0.346189 1.07291 -0.0371099)
(0.345827 1.07143 -0.038588)
(0.345449 1.06995 -0.0400641)
(0.345055 1.06848 -0.041538)
(0.344644 1.06701 -0.0430098)
(0.344217 1.06554 -0.0444792)
(0.343774 1.06407 -0.0459462)
(0.343315 1.06261 -0.0474107)
(0.34284 1.06114 -0.0488727)
(0.342349 1.05968 -0.050332)
(0.341841 1.05823 -0.0517885)
(0.341318 1.05677 -0.0532422)
(0.340778 1.05532 -0.054693)
(0.340223 1.05388 -0.0561408)
(0.339652 1.05243 -0.0575854)
(0.339064 1.05099 -0.0590269)
(0.338461 1.04955 -0.0604651)
(0.337842 1.04812 -0.0618999)
(0.337208 1.04669 -0.0633313)
(0.336557 1.04526 -0.0647591)
(0.335891 1.04383 -0.0661833)
(0.335209 1.04241 -0.0676038)
(0.334512 1.041 -0.0690205)
(0.333799 1.03958 -0.0704333)
(0.33307 1.03817 -0.0718421)
(0.332326 1.03677 -0.0732469)
(0.331566 1.03537 -0.0746475)
(0.330791 1.03397 -0.0760439)
(0.330001 1.03258 -0.077436)
(0.329195 1.03119 -0.0788237)
(0.328375 1.02981 -0.080207)
(0.327538 1.02843 -0.0815856)
(0.326687 1.02706 -0.0829596)
(0.325821 1.02569 -0.0843289)
(0.324939 1.02432 -0.0856934)
(0.324043 1.02296 -0.0870529)
(0.323131 1.02161 -0.0884075)
(0.322205 1.02026 -0.089757)
(0.321264 1.01892 -0.0911014)
(0.320308 1.01758 -0.0924406)
(0.319337 1.01624 -0.0937744)
(0.318352 1.01491 -0.0951029)
(0.317352 1.01359 -0.0964259)
(0.316337 1.01227 -0.0977433)
(0.315309 1.01096 -0.0990551)
(0.314265 1.00966 -0.100361)
(0.313207 1.00836 -0.101662)
(0.312135 1.00706 -0.102956)
(0.311049 1.00577 -0.104245)
(0.309949 1.00449 -0.105527)
(0.308834 1.00321 -0.106803)
(0.307705 1.00194 -0.108074)
(0.306563 1.00068 -0.109338)
(0.305407 0.999422 -0.110595)
(0.304236 0.998171 -0.111846)
(0.303052 0.996926 -0.113091)
(0.301855 0.995688 -0.114329)
(0.300643 0.994457 -0.115561)
(0.299419 0.993232 -0.116786)
(0.29818 0.992014 -0.118004)
(0.296929 0.990803 -0.119215)
(0.295664 0.989598 -0.120419)
(0.294386 0.988401 -0.121616)
(0.293094 0.987211 -0.122806)
(0.29179 0.986028 -0.123989)
(0.290472 0.984852 -0.125165)
(0.289142 0.983684 -0.126334)
(0.287799 0.982522 -0.127495)
(0.286443 0.981369 -0.128649)
(0.285075 0.980223 -0.129795)
(0.283693 0.979084 -0.130933)
(0.2823 0.977953 -0.132064)
(0.280894 0.97683 -0.133188)
(0.279475 0.975714 -0.134303)
(0.278044 0.974607 -0.135411)
(0.276602 0.973507 -0.13651)
(0.275147 0.972415 -0.137602)
(0.27368 0.971331 -0.138686)
(0.272201 0.970256 -0.139761)
(0.27071 0.969189 -0.140829)
(0.269208 0.968129 -0.141888)
(0.267694 0.967079 -0.142939)
(0.266169 0.966036 -0.143981)
(0.264632 0.965002 -0.145015)
(0.263084 0.963977 -0.146041)
(0.261524 0.96296 -0.147058)
(0.259954 0.961951 -0.148066)
(0.258372 0.960952 -0.149066)
(0.256779 0.959961 -0.150057)
(0.255176 0.958978 -0.151039)
(0.253561 0.958005 -0.152012)
(0.251936 0.957041 -0.152976)
(0.250301 0.956086 -0.153932)
(0.248655 0.955139 -0.154878)
(0.246998 0.954202 -0.155815)
(0.245332 0.953274 -0.156743)
(0.243655 0.952355 -0.157662)
(0.241968 0.951445 -0.158572)
(0.240271 0.950545 -0.159472)
(0.238564 0.949654 -0.160363)
(0.236848 0.948773 -0.161245)
(0.235121 0.947901 -0.162117)
(0.233386 0.947038 -0.162979)
(0.231641 0.946186 -0.163832)
(0.229886 0.945342 -0.164675)
(0.228122 0.944509 -0.165509)
(0.226349 0.943685 -0.166332)
(0.224567 0.942871 -0.167146)
(0.222776 0.942067 -0.167951)
(0.220977 0.941272 -0.168745)
(0.219168 0.940488 -0.169529)
(0.217351 0.939714 -0.170303)
(0.215526 0.93895 -0.171068)
(0.213692 0.938195 -0.171822)
(0.21185 0.937451 -0.172566)
(0.21 1.27187 0.164714)
(0.21 1.27044 0.166145)
(0.21 1.26901 0.167576)
(0.21 1.26758 0.169007)
(0.21 1.26614 0.170438)
(0.21 1.26471 0.171869)
(0.21185 1.26255 0.172566)
(0.213692 1.26181 0.171822)
(0.215526 1.26105 0.171068)
(0.217351 1.26029 0.170303)
(0.219168 1.25951 0.169529)
(0.220977 1.25873 0.168745)
(0.222776 1.25793 0.167951)
(0.224567 1.25713 0.167146)
(0.226349 1.25631 0.166332)
(0.228122 1.25549 0.165509)
(0.229886 1.25466 0.164675)
(0.231641 1.25382 0.163832)
(0.233386 1.25296 0.162979)
(0.235121 1.2521 0.162117)
(0.236848 1.25123 0.161245)
(0.238564 1.25035 0.160363)
(0.240271 1.24945 0.159472)
(0.241968 1.24855 0.158572)
(0.243655 1.24765 0.157662)
(0.245332 1.24673 0.156743)
(0.246998 1.2458 0.155815)
(0.248655 1.24486 0.154878)
(0.250301 1.24391 0.153932)
(0.251936 1.24296 0.152976)
(0.253561 1.24199 0.152012)
(0.255176 1.24102 0.151039)
(0.256779 1.24004 0.150057)
(0.258372 1.23905 0.149066)
(0.259954 1.23805 0.148066)
(0.261524 1.23704 0.147058)
(0.263084 1.23602 0.146041)
(0.264632 1.235 0.145015)
(0.266169 1.23396 0.143981)
(0.267694 1.23292 0.142939)
(0.269208 1.23187 0.141888)
(0.27071 1.23081 0.140829)
(0.272201 1.22974 0.139761)
(0.27368 1.22867 0.138686)
(0.275147 1.22758 0.137602)
(0.276602 1.22649 0.13651)
(0.278044 1.22539 0.135411)
(0.279475 1.22429 0.134303)
(0.280894 1.22317 0.133188)
(0.2823 1.22205 0.132064)
(0.283693 1.22092 0.130933)
(0.285075 1.21978 0.129795)
(0.286443 1.21863 0.128649)
(0.287799 1.21748 0.127495)
(0.289142 1.21632 0.126334)
(0.290472 1.21515 0.125165)
(0.29179 1.21397 0.123989)
(0.293094 1.21279 0.122806)
(0.294386 1.2116 0.121616)
(0.295664 1.2104 0.120419)
(0.296929 1.2092 0.119215)
(0.29818 1.20799 0.118004)
(0.299419 1.20677 0.116786)
(0.300643 1.20554 0.115561)
(0.301855 1.20431 0.114329)
(0.303052 1.20307 0.113091)
(0.304236 1.20183 0.111846)
(0.305407 1.20058 0.110595)
(0.306563 1.19932 0.109338)
(0.307705 1.19806 0.108074)
(0.308834 1.19679 0.106803)
(0.309949 1.19551 0.105527)
(0.311049 1.19423 0.104245)
(0.312135 1.19294 0.102956)
(0.313207 1.19164 0.101662)
(0.314265 1.19034 0.100361)
(0.315309 1.18904 0.0990551)
(0.316337 1.18773 0.0977433)
(0.317352 1.18641 0.0964259)
(0.318352 1.18509 0.0951029)
(0.319337 1.18376 0.0937744)
(0.320308 1.18242 0.0924406)
(0.321264 1.18108 0.0911014)
(0.322205 1.17974 0.089757)
(0.323131 1.17839 0.0884075)
(0.324043 1.17704 0.0870529)
(0.324939 1.17568 0.0856934)
(0.325821 1.17431 0.0843289)
(0.326687 1.17294 0.0829596)
(0.327538 1.17157 0.0815856)
(0.328375 1.17019 0.080207)
(0.329195 1.16881 0.0788237)
(0.330001 1.16742 0.077436)
(0.330791 1.16603 0.0760439)
(0.331566 1.16463 0.0746475)
(0.332326 1.16323 0.0732469)
(0.33307 1.16182 0.0718421)
(0.333799 1.16042 0.0704333)
(0.334512 1.159 0.0690205)
(0.335209 1.15759 0.0676038)
(0.335891 1.15617 0.0661833)
(0.336557 1.15474 0.0647591)
(0.337208 1.15331 0.0633313)
(0.337842 1.15188 0.0618999)
(0.338461 1.15045 0.0604651)
(0.339064 1.14901 0.0590269)
(0.339652 1.14757 0.0575854)
(0.340223 1.14612 0.0561408)
(0.340778 1.14468 0.054693)
(0.341318 1.14322 0.0532422)
(0.341841 1.14177 0.0517885)
(0.342349 1.14032 0.050332)
(0.34284 1.13885 0.0488727)
(0.343315 1.13739 0.0474107)
(0.343774 1.13593 0.0459462)
(0.344217 1.13446 0.0444792)
(0.344644 1.13299 0.0430098)
(0.345055 1.13152 0.041538)
(0.345449 1.13005 0.0400641)
(0.345827 1.12857 0.038588)
(0.346189 1.12709 0.0371099)
(0.346534 1.12561 0.0356299)
(0.346864 1.12413 0.034148)
(0.347177 1.12265 0.0326643)
(0.347473 1.12116 0.0311789)
(0.347753 1.11968 0.029692)
(0.348017 1.11819 0.0282035)
(0.348264 1.1167 0.0267137)
(0.348495 1.11521 0.0252225)
(0.34871 1.11371 0.0237301)
(0.348908 1.11222 0.0222366)
(0.349089 1.11073 0.020742)
(0.349254 1.10923 0.0192465)
(0.349403 1.10773 0.0177501)
(0.349535 1.10624 0.0162529)
(0.349651 1.10474 0.0147551)
(0.34975 1.10324 0.0132566)
(0.349833 1.10174 0.0117577)
(0.349899 1.10024 0.0102583)
(0.349948 1.09874 0.00875865)
(0.349981 1.09724 0.00725875)
(0.349998 1.09574 0.00575871)
(0.349998 1.09424 0.00425863)
(0.349981 1.09274 0.00275859)
(0.349948 1.09124 0.00125869)
(0.349899 1.08974 -0.000240979)
(0.349833 1.08824 -0.00174033)
(0.34975 1.08674 -0.00323928)
(0.349651 1.08525 -0.00473772)
(0.349535 1.08375 -0.00623557)
(0.349403 1.08225 -0.00773274)
(0.349254 1.08075 -0.00922914)
(0.349089 1.07926 -0.0107247)
(0.348908 1.07776 -0.0122193)
(0.34871 1.07627 -0.0137128)
(0.348495 1.07478 -0.0152052)
(0.348264 1.07329 -0.0166964)
(0.348017 1.0718 -0.0181862)
(0.347753 1.07031 -0.0196746)
(0.347473 1.06882 -0.0211616)
(0.347177 1.06734 -0.0226469)
(0.346864 1.06585 -0.0241306)
(0.346534 1.06437 -0.0256125)
(0.346189 1.06289 -0.0270926)
(0.345827 1.06141 -0.0285707)
(0.345449 1.05994 -0.0300467)
(0.345055 1.05846 -0.0315207)
(0.344644 1.05699 -0.0329924)
(0.344217 1.05552 -0.0344618)
(0.343774 1.05405 -0.0359288)
(0.343315 1.05259 -0.0373934)
(0.34284 1.05113 -0.0388553)
(0.342349 1.04967 -0.0403146)
(0.341841 1.04821 -0.0417712)
(0.341318 1.04676 -0.0432249)
(0.340778 1.04531 -0.0446756)
(0.340223 1.04386 -0.0461234)
(0.339652 1.04242 -0.0475681)
(0.339064 1.04097 -0.0490095)
(0.338461 1.03954 -0.0504477)
(0.337842 1.0381 -0.0518826)
(0.337208 1.03667 -0.0533139)
(0.336557 1.03524 -0.0547418)
(0.335891 1.03382 -0.0561659)
(0.335209 1.0324 -0.0575864)
(0.334512 1.03098 -0.0590031)
(0.333799 1.02957 -0.0604159)
(0.33307 1.02816 -0.0618248)
(0.332326 1.02675 -0.0632296)
(0.331566 1.02535 -0.0646302)
(0.330791 1.02396 -0.0660266)
(0.330001 1.02256 -0.0674187)
(0.329195 1.02118 -0.0688064)
(0.328375 1.01979 -0.0701896)
(0.327538 1.01841 -0.0715683)
(0.326687 1.01704 -0.0729423)
(0.325821 1.01567 -0.0743116)
(0.324939 1.01431 -0.075676)
(0.324043 1.01295 -0.0770356)
(0.323131 1.01159 -0.0783902)
(0.322205 1.01024 -0.0797397)
(0.321264 1.0089 -0.0810841)
(0.320308 1.00756 -0.0824232)
(0.319337 1.00623 -0.0837571)
(0.318352 1.0049 -0.0850855)
(0.317352 1.00357 -0.0864085)
(0.316337 1.00226 -0.087726)
(0.315309 1.00094 -0.0890378)
(0.314265 0.999639 -0.0903439)
(0.313207 0.998338 -0.0916442)
(0.312135 0.997044 -0.0929387)
(0.311049 0.995755 -0.0942272)
(0.309949 0.994473 -0.0955096)
(0.308834 0.993197 -0.096786)
(0.307705 0.991926 -0.0980562)
(0.306563 0.990663 -0.0993202)
(0.305407 0.989405 -0.100578)
(0.304236 0.988154 -0.101829)
(0.303052 0.986909 -0.103074)
(0.301855 0.985671 -0.104312)
(0.300643 0.984439 -0.105543)
(0.299419 0.983214 -0.106768)
(0.29818 0.981996 -0.107986)
(0.296929 0.980785 -0.109197)
(0.295664 0.979581 -0.110402)
(0.294386 0.978384 -0.111599)
(0.293094 0.977194 -0.112789)
(0.29179 0.976011 -0.113972)
(0.290472 0.974835 -0.115148)
(0.289142 0.973666 -0.116316)
(0.287799 0.972505 -0.117477)
(0.286443 0.971352 -0.118631)
(0.285075 0.970205 -0.119777)
(0.283693 0.969067 -0.120916)
(0.2823 0.967936 -0.122047)
(0.280894 0.966812 -0.12317)
(0.279475 0.965697 -0.124286)
(0.278044 0.964589 -0.125393)
(0.276602 0.96349 -0.126493)
(0.275147 0.962398 -0.127585)
(0.27368 0.961314 -0.128669)
(0.272201 0.960239 -0.129744)
(0.27071 0.959171 -0.130811)
(0.269208 0.958112 -0.131871)
(0.267694 0.957061 -0.132922)
(0.266169 0.956019 -0.133964)
(0.264632 0.954985 -0.134998)
(0.263084 0.953959 -0.136024)
(0.261524 0.952942 -0.13704)
(0.259954 0.951934 -0.138049)
(0.258372 0.950934 -0.139049)
(0.256779 0.949943 -0.140039)
(0.255176 0.948961 -0.141022)
(0.253561 0.947988 -0.141995)
(0.251936 0.947024 -0.142959)
(0.250301 0.946068 -0.143915)
(0.248655 0.945122 -0.144861)
(0.246998 0.944185 -0.145798)
(0.245332 0.943256 -0.146726)
(0.243655 0.942338 -0.147645)
(0.241968 0.941428 -0.148555)
(0.240271 0.940528 -0.149455)
(0.238564 0.939637 -0.150346)
(0.236848 0.938755 -0.151227)
(0.235121 0.937883 -0.152099)
(0.233386 0.937021 -0.152962)
(0.231641 0.936168 -0.153814)
(0.229886 0.935325 -0.154658)
(0.228122 0.934491 -0.155491)
(0.226349 0.933668 -0.156315)
(0.224567 0.932854 -0.157129)
(0.222776 0.932049 -0.157933)
(0.220977 0.931255 -0.158727)
(0.219168 0.930471 -0.159512)
(0.217351 0.929697 -0.160286)
(0.215526 0.928932 -0.16105)
(0.213692 0.928178 -0.161805)
(0.21185 0.927434 -0.162549)
(0.0805182 1.15738 0.067393)
(0.0815761 1.15609 0.0661085)
(0.0826086 1.1548 0.0648138)
(0.0836157 1.15349 0.0635091)
(0.0845978 1.15218 0.0621949)
(0.085555 1.15085 0.0608716)
(0.0864874 1.14952 0.0595394)
(0.0873951 1.14818 0.0581987)
(0.0882784 1.14683 0.0568499)
(0.0891375 1.14548 0.0554933)
(0.0899724 1.14411 0.0541292)
(0.0907833 1.14274 0.0527579)
(0.0915704 1.14136 0.0513796)
(0.0923338 1.13998 0.0499947)
(0.0930737 1.13859 0.0486034)
(0.0937901 1.13719 0.047206)
(0.0944834 1.13578 0.0458028)
(0.0951534 1.13438 0.0443939)
(0.0958005 1.13296 0.0429797)
(0.0964248 1.13154 0.0415604)
(0.0970262 1.13012 0.0401362)
(0.0976051 1.12869 0.0387072)
(0.0981614 1.12726 0.0372738)
(0.0986953 1.12582 0.0358362)
(0.0992069 1.12438 0.0343945)
(0.0996964 1.12293 0.0329489)
(0.100164 1.12148 0.0314997)
(0.100609 1.12003 0.0300471)
(0.101032 1.11857 0.0285912)
(0.101434 1.11712 0.0271321)
(0.101814 1.11565 0.0256702)
(0.102172 1.11419 0.0242055)
(0.102508 1.11272 0.0227383)
(0.102823 1.11125 0.0212687)
(0.103117 1.10978 0.0197969)
(0.103389 1.10831 0.018323)
(0.10364 1.10683 0.0168472)
(0.103869 1.10535 0.0153697)
(0.104077 1.10387 0.0138906)
(0.104264 1.10239 0.0124101)
(0.10443 1.10091 0.0109283)
(0.104574 1.09943 0.00944542)
(0.104698 1.09794 0.00796159)
(0.1048 1.09646 0.00647696)
(0.104881 1.09497 0.00499167)
(0.104942 1.09349 0.00350588)
(0.104981 1.092 0.00201975)
(0.104999 1.09052 0.000533407)
(0.104996 1.08903 -0.000952987)
(0.104972 1.08754 -0.00243928)
(0.104927 1.08606 -0.00392534)
(0.10486 1.08457 -0.005411)
(0.104773 1.08309 -0.00689611)
(0.104665 1.0816 -0.00838054)
(0.104536 1.08012 -0.00986411)
(0.104385 1.07864 -0.0113467)
(0.104213 1.07715 -0.0128281)
(0.10402 1.07567 -0.0143082)