/*--------------------------------*- C++ -*----------------------------------*\
  =========                 |
  \\      /  F ield         | OpenFOAM: The Open Source CFD Toolbox
   \\    /   O peration     | Website:  https://openfoam.org
    \\  /    A nd           | Version:  10
     \\/     M anipulation  |
\*---------------------------------------------------------------------------*/
FoamFile
{
    format      ascii;
    class       featureEdgeMesh;
    location    "constant/triSurface";
    object      rushton_blades.eMesh;
}
// * * * * * * * * * * * * * * * * * * * * * * * * * * * * * * * * * * * * * //


// points:

3876
(
(-0.2499 0.35 -0.00708333)
(-0.124799 0.35 -0.00708333)
(-0.124799 0.35 0.00708333)
(-0.2499 0.35 0.00708333)
(-0.2499 0.45 -0.00708333)
(-0.124799 0.45 -0.00708333)
(-0.124799 0.407083 -0.00708333)
(-0.124799 0.392917 -0.00708333)
(-0.124799 0.392917 0.00708333)
(-0.2499 0.45 0.00708333)
(-0.124799 0.407083 0.00708333)
(-0.124799 0.45 0.00708333)
(0.124799 0.35 -0.00708333)
(0.2499 0.35 -0.00708333)
(0.2499 0.35 0.00708333)
(0.124799 0.35 0.00708333)
(0.124799 0.392917 -0.00708333)
(0.124799 0.407083 -0.00708333)
(0.124799 0.45 -0.00708333)
(0.2499 0.45 -0.00708333)
(0.2499 0.45 0.00708333)
(0.124799 0.392917 0.00708333)
(0.124799 0.45 0.00708333)
(0.124799 0.407083 0.00708333)
(-0.131084 0.35 0.212878)
(-0.0685339 0.35 0.104538)
(-0.0562652 0.35 0.111621)
(-0.118815 0.35 0.219961)
(-0.131084 0.45 0.212878)
(-0.0685339 0.45 0.104538)
(-0.0685339 0.407083 0.104538)
(-0.0685339 0.392917 0.104538)
(-0.0562652 0.392917 0.111621)
(-0.118815 0.45 0.219961)
(-0.0562652 0.407083 0.111621)
(-0.0562652 0.45 0.111621)
(0.0562652 0.35 -0.111621)
(0.118815 0.35 -0.219961)
(0.131084 0.35 -0.212878)
(0.0685339 0.35 -0.104538)
(0.0562652 0.392917 -0.111621)
(0.0562652 0.407083 -0.111621)
(0.0562652 0.45 -0.111621)
(0.118815 0.45 -0.219961)
(0.131084 0.45 -0.212878)
(0.0685339 0.392917 -0.104538)
(0.0685339 0.45 -0.104538)
(0.0685339 0.407083 -0.104538)
(0.118815 0.35 0.219961)
(0.0562652 0.35 0.111621)
(0.0685339 0.35 0.104538)
(0.131084 0.35 0.212878)
(0.118815 0.45 0.219961)
(0.0562652 0.45 0.111621)
(0.0562652 0.407083 0.111621)
(0.0562652 0.392917 0.111621)
(0.0685339 0.392917 0.104538)
(0.131084 0.45 0.212878)
(0.0685339 0.407083 0.104538)
(0.0685339 0.45 0.104538)
(-0.0685339 0.35 -0.104538)
(-0.131084 0.35 -0.212878)
(-0.118815 0.35 -0.219961)
(-0.0562652 0.35 -0.111621)
(-0.0685339 0.392917 -0.104538)
(-0.0685339 0.407083 -0.104538)
(-0.0685339 0.45 -0.104538)
(-0.131084 0.45 -0.212878)
(-0.118815 0.45 -0.219961)
(-0.0562652 0.392917 -0.111621)
(-0.0562652 0.45 -0.111621)
(-0.0562652 0.407083 -0.111621)
(-0.212382 0.407083 -0.00708333)
(-0.212382 0.392917 -0.00708333)
(-0.212382 0.392917 0.00708333)
(-0.212382 0.407083 0.00708333)
(0.212382 0.392917 -0.00708333)
(0.212382 0.407083 -0.00708333)
(0.212382 0.407083 0.00708333)
(0.212382 0.392917 0.00708333)
(-0.112325 0.407083 0.180386)
(-0.112325 0.392917 0.180386)
(-0.100057 0.392917 0.18747)
(-0.100057 0.407083 0.18747)
(0.100057 0.392917 -0.18747)
(0.100057 0.407083 -0.18747)
(0.112325 0.407083 -0.180386)
(0.112325 0.392917 -0.180386)
(0.100057 0.407083 0.18747)
(0.100057 0.392917 0.18747)
(0.112325 0.392917 0.180386)
(0.112325 0.407083 0.180386)
(-0.112325 0.392917 -0.180386)
(-0.112325 0.407083 -0.180386)
(-0.100057 0.407083 -0.18747)
(-0.100057 0.392917 -0.18747)
(-0.247779 0.35 -0.00708333)
(-0.249949 0.35 -0.00505986)
(-0.245659 0.35 -0.00708333)
(-0.243539 0.35 -0.00708333)
(-0.241418 0.35 -0.00708333)
(-0.239298 0.35 -0.00708333)
(-0.237178 0.35 -0.00708333)
(-0.235057 0.35 -0.00708333)
(-0.232937 0.35 -0.00708333)
(-0.230816 0.35 -0.00708333)
(-0.228696 0.35 -0.00708333)
(-0.226576 0.35 -0.00708333)
(-0.224456 0.35 -0.00708333)
(-0.222335 0.35 -0.00708333)
(-0.220215 0.35 -0.00708333)
(-0.218094 0.35 -0.00708333)
(-0.215974 0.35 -0.00708333)
(-0.213854 0.35 -0.00708333)
(-0.211733 0.35 -0.00708333)
(-0.209613 0.35 -0.00708333)
(-0.207493 0.35 -0.00708333)
(-0.205372 0.35 -0.00708333)
(-0.203252 0.35 -0.00708333)
(-0.201132 0.35 -0.00708333)
(-0.199011 0.35 -0.00708333)
(-0.196891 0.35 -0.00708333)
(-0.194771 0.35 -0.00708333)
(-0.19265 0.35 -0.00708333)
(-0.19053 0.35 -0.00708333)
(-0.18841 0.35 -0.00708333)
(-0.186289 0.35 -0.00708333)
(-0.184169 0.35 -0.00708333)
(-0.182048 0.35 -0.00708333)
(-0.179928 0.35 -0.00708333)
(-0.177808 0.35 -0.00708333)
(-0.175688 0.35 -0.00708333)
(-0.173567 0.35 -0.00708333)
(-0.171447 0.35 -0.00708333)
(-0.169326 0.35 -0.00708333)
(-0.167206 0.35 -0.00708333)
(-0.165086 0.35 -0.00708333)
(-0.162965 0.35 -0.00708333)
(-0.160845 0.35 -0.00708333)
(-0.158725 0.35 -0.00708333)
(-0.156604 0.35 -0.00708333)
(-0.154484 0.35 -0.00708333)
(-0.152364 0.35 -0.00708333)
(-0.150243 0.35 -0.00708333)
(-0.148123 0.35 -0.00708333)
(-0.146003 0.35 -0.00708333)
(-0.143882 0.35 -0.00708333)
(-0.141762 0.35 -0.00708333)
(-0.139642 0.35 -0.00708333)
(-0.137521 0.35 -0.00708333)
(-0.135401 0.35 -0.00708333)
(-0.133281 0.35 -0.00708333)
(-0.13116 0.35 -0.00708333)
(-0.12904 0.35 -0.00708333)
(-0.126919 0.35 -0.00708333)
(-0.124898 0.35 -0.00506085)
(-0.124963 0.35 -0.00303704)
(-0.124996 0.35 -0.00101244)
(-0.124996 0.35 0.00101244)
(-0.124963 0.35 0.00303704)
(-0.124898 0.35 0.00506085)
(-0.126919 0.35 0.00708333)
(-0.12904 0.35 0.00708333)
(-0.13116 0.35 0.00708333)
(-0.133281 0.35 0.00708333)
(-0.135401 0.35 0.00708333)
(-0.137521 0.35 0.00708333)
(-0.139642 0.35 0.00708333)
(-0.141762 0.35 0.00708333)
(-0.143882 0.35 0.00708333)
(-0.146003 0.35 0.00708333)
(-0.148123 0.35 0.00708333)
(-0.150243 0.35 0.00708333)
(-0.152364 0.35 0.00708333)
(-0.154484 0.35 0.00708333)
(-0.156604 0.35 0.00708333)
(-0.158725 0.35 0.00708333)
(-0.160845 0.35 0.00708333)
(-0.162965 0.35 0.00708333)
(-0.165086 0.35 0.00708333)
(-0.167206 0.35 0.00708333)
(-0.169326 0.35 0.00708333)
(-0.171447 0.35 0.00708333)
(-0.173567 0.35 0.00708333)
(-0.175688 0.35 0.00708333)
(-0.177808 0.35 0.00708333)
(-0.179928 0.35 0.00708333)
(-0.182048 0.35 0.00708333)
(-0.184169 0.35 0.00708333)
(-0.186289 0.35 0.00708333)
(-0.18841 0.35 0.00708333)
(-0.19053 0.35 0.00708333)
(-0.19265 0.35 0.00708333)
(-0.194771 0.35 0.00708333)
(-0.196891 0.35 0.00708333)
(-0.199011 0.35 0.00708333)
(-0.201132 0.35 0.00708333)
(-0.203252 0.35 0.00708333)
(-0.205372 0.35 0.00708333)
(-0.207493 0.35 0.00708333)
(-0.209613 0.35 0.00708333)
(-0.211733 0.35 0.00708333)
(-0.213854 0.35 0.00708333)
(-0.215974 0.35 0.00708333)
(-0.218094 0.35 0.00708333)
(-0.220215 0.35 0.00708333)
(-0.222335 0.35 0.00708333)
(-0.224456 0.35 0.00708333)
(-0.226576 0.35 0.00708333)
(-0.228696 0.35 0.00708333)
(-0.230816 0.35 0.00708333)
(-0.232937 0.35 0.00708333)
(-0.235057 0.35 0.00708333)
(-0.237178 0.35 0.00708333)
(-0.239298 0.35 0.00708333)
(-0.241418 0.35 0.00708333)
(-0.243539 0.35 0.00708333)
(-0.245659 0.35 0.00708333)
(-0.247779 0.35 0.00708333)
(-0.249949 0.35 0.00505986)
(-0.249982 0.35 0.00303605)
(-0.249998 0.35 0.00101204)
(-0.249998 0.35 -0.00101204)
(-0.249982 0.35 -0.00303605)
(-0.2499 0.352083 -0.00708333)
(-0.2499 0.354167 -0.00708333)
(-0.2499 0.35625 -0.00708333)
(-0.2499 0.358333 -0.00708333)
(-0.2499 0.360417 -0.00708333)
(-0.2499 0.3625 -0.00708333)
(-0.2499 0.364583 -0.00708333)
(-0.2499 0.366667 -0.00708333)
(-0.2499 0.36875 -0.00708333)
(-0.2499 0.370833 -0.00708333)
(-0.2499 0.372917 -0.00708333)
(-0.2499 0.375 -0.00708333)
(-0.2499 0.377083 -0.00708333)
(-0.2499 0.379167 -0.00708333)
(-0.2499 0.38125 -0.00708333)
(-0.2499 0.383333 -0.00708333)
(-0.2499 0.385417 -0.00708333)
(-0.2499 0.3875 -0.00708333)
(-0.2499 0.389583 -0.00708333)
(-0.2499 0.391667 -0.00708333)
(-0.2499 0.39375 -0.00708333)
(-0.2499 0.395833 -0.00708333)
(-0.2499 0.397917 -0.00708333)
(-0.2499 0.4 -0.00708333)
(-0.2499 0.402083 -0.00708333)
(-0.2499 0.404167 -0.00708333)
(-0.2499 0.40625 -0.00708333)
(-0.2499 0.408333 -0.00708333)
(-0.2499 0.410417 -0.00708333)
(-0.2499 0.4125 -0.00708333)
(-0.2499 0.414583 -0.00708333)
(-0.2499 0.416667 -0.00708333)
(-0.2499 0.41875 -0.00708333)
(-0.2499 0.420833 -0.00708333)
(-0.2499 0.422917 -0.00708333)
(-0.2499 0.425 -0.00708333)
(-0.2499 0.427083 -0.00708333)
(-0.2499 0.429167 -0.00708333)
(-0.2499 0.43125 -0.00708333)
(-0.2499 0.433333 -0.00708333)
(-0.2499 0.435417 -0.00708333)
(-0.2499 0.4375 -0.00708333)
(-0.2499 0.439583 -0.00708333)
(-0.2499 0.441667 -0.00708333)
(-0.2499 0.44375 -0.00708333)
(-0.2499 0.445833 -0.00708333)
(-0.2499 0.447917 -0.00708333)
(-0.247779 0.45 -0.00708333)
(-0.245659 0.45 -0.00708333)
(-0.243539 0.45 -0.00708333)
(-0.241418 0.45 -0.00708333)
(-0.239298 0.45 -0.00708333)
(-0.237178 0.45 -0.00708333)
(-0.235057 0.45 -0.00708333)
(-0.232937 0.45 -0.00708333)
(-0.230816 0.45 -0.00708333)
(-0.228696 0.45 -0.00708333)
(-0.226576 0.45 -0.00708333)
(-0.224456 0.45 -0.00708333)
(-0.222335 0.45 -0.00708333)
(-0.220215 0.45 -0.00708333)
(-0.218094 0.45 -0.00708333)
(-0.215974 0.45 -0.00708333)
(-0.213854 0.45 -0.00708333)
(-0.211733 0.45 -0.00708333)
(-0.209613 0.45 -0.00708333)
(-0.207493 0.45 -0.00708333)
(-0.205372 0.45 -0.00708333)
(-0.203252 0.45 -0.00708333)
(-0.201132 0.45 -0.00708333)
(-0.199011 0.45 -0.00708333)
(-0.196891 0.45 -0.00708333)
(-0.194771 0.45 -0.00708333)
(-0.19265 0.45 -0.00708333)
(-0.19053 0.45 -0.00708333)
(-0.18841 0.45 -0.00708333)
(-0.186289 0.45 -0.00708333)
(-0.184169 0.45 -0.00708333)
(-0.182048 0.45 -0.00708333)
(-0.179928 0.45 -0.00708333)
(-0.177808 0.45 -0.00708333)
(-0.175688 0.45 -0.00708333)
(-0.173567 0.45 -0.00708333)
(-0.171447 0.45 -0.00708333)
(-0.169326 0.45 -0.00708333)
(-0.167206 0.45 -0.00708333)
(-0.165086 0.45 -0.00708333)
(-0.162965 0.45 -0.00708333)
(-0.160845 0.45 -0.00708333)
(-0.158725 0.45 -0.00708333)
(-0.156604 0.45 -0.00708333)
(-0.154484 0.45 -0.00708333)
(-0.152364 0.45 -0.00708333)
(-0.150243 0.45 -0.00708333)
(-0.148123 0.45 -0.00708333)
(-0.146003 0.45 -0.00708333)
(-0.143882 0.45 -0.00708333)
(-0.141762 0.45 -0.00708333)
(-0.139642 0.45 -0.00708333)
(-0.137521 0.45 -0.00708333)
(-0.135401 0.45 -0.00708333)
(-0.133281 0.45 -0.00708333)
(-0.13116 0.45 -0.00708333)
(-0.12904 0.45 -0.00708333)
(-0.126919 0.45 -0.00708333)
(-0.124799 0.447956 -0.00708333)
(-0.124799 0.445913 -0.00708333)
(-0.124799 0.443869 -0.00708333)
(-0.124799 0.441825 -0.00708333)
(-0.124799 0.439782 -0.00708333)
(-0.124799 0.437738 -0.00708333)
(-0.124799 0.435694 -0.00708333)
(-0.124799 0.433651 -0.00708333)
(-0.124799 0.431607 -0.00708333)
(-0.124799 0.429563 -0.00708333)
(-0.124799 0.42752 -0.00708333)
(-0.124799 0.425476 -0.00708333)
(-0.124799 0.423432 -0.00708333)
(-0.124799 0.421389 -0.00708333)
(-0.124799 0.419345 -0.00708333)
(-0.124799 0.417302 -0.00708333)
(-0.124799 0.415258 -0.00708333)
(-0.124799 0.413214 -0.00708333)
(-0.124799 0.411171 -0.00708333)
(-0.124799 0.409127 -0.00708333)
(-0.126884 0.407083 -0.00708333)
(-0.12897 0.407083 -0.00708333)
(-0.131055 0.407083 -0.00708333)
(-0.13314 0.407083 -0.00708333)
(-0.135226 0.407083 -0.00708333)
(-0.137311 0.407083 -0.00708333)
(-0.139396 0.407083 -0.00708333)
(-0.141482 0.407083 -0.00708333)
(-0.143567 0.407083 -0.00708333)
(-0.145652 0.407083 -0.00708333)
(-0.147738 0.407083 -0.00708333)
(-0.149823 0.407083 -0.00708333)
(-0.151908 0.407083 -0.00708333)
(-0.153993 0.407083 -0.00708333)
(-0.156079 0.407083 -0.00708333)
(-0.158164 0.407083 -0.00708333)
(-0.160249 0.407083 -0.00708333)
(-0.162335 0.407083 -0.00708333)
(-0.16442 0.407083 -0.00708333)
(-0.166505 0.407083 -0.00708333)
(-0.168591 0.407083 -0.00708333)
(-0.170676 0.407083 -0.00708333)
(-0.172761 0.407083 -0.00708333)
(-0.174846 0.407083 -0.00708333)
(-0.176932 0.407083 -0.00708333)
(-0.179017 0.407083 -0.00708333)
(-0.181102 0.407083 -0.00708333)
(-0.183188 0.407083 -0.00708333)
(-0.185273 0.407083 -0.00708333)
(-0.187358 0.407083 -0.00708333)
(-0.189444 0.407083 -0.00708333)
(-0.191529 0.407083 -0.00708333)
(-0.193614 0.407083 -0.00708333)
(-0.195699 0.407083 -0.00708333)
(-0.197785 0.407083 -0.00708333)
(-0.19987 0.407083 -0.00708333)
(-0.201955 0.407083 -0.00708333)
(-0.204041 0.407083 -0.00708333)
(-0.206126 0.407083 -0.00708333)
(-0.208211 0.407083 -0.00708333)
(-0.210297 0.407083 -0.00708333)
(-0.212382 0.405059 -0.00708333)
(-0.212382 0.403036 -0.00708333)
(-0.212382 0.401012 -0.00708333)
(-0.212382 0.398988 -0.00708333)
(-0.212382 0.396964 -0.00708333)
(-0.212382 0.39494 -0.00708333)
(-0.210297 0.392917 -0.00708333)
(-0.208211 0.392917 -0.00708333)
(-0.206126 0.392917 -0.00708333)
(-0.204041 0.392917 -0.00708333)
(-0.201955 0.392917 -0.00708333)
(-0.19987 0.392917 -0.00708333)
(-0.197785 0.392917 -0.00708333)
(-0.195699 0.392917 -0.00708333)
(-0.193614 0.392917 -0.00708333)
(-0.191529 0.392917 -0.00708333)
(-0.189444 0.392917 -0.00708333)
(-0.187358 0.392917 -0.00708333)
(-0.185273 0.392917 -0.00708333)
(-0.183188 0.392917 -0.00708333)
(-0.181102 0.392917 -0.00708333)
(-0.179017 0.392917 -0.00708333)
(-0.176932 0.392917 -0.00708333)
(-0.174846 0.392917 -0.00708333)
(-0.172761 0.392917 -0.00708333)
(-0.170676 0.392917 -0.00708333)
(-0.168591 0.392917 -0.00708333)
(-0.166505 0.392917 -0.00708333)
(-0.16442 0.392917 -0.00708333)
(-0.162335 0.392917 -0.00708333)
(-0.160249 0.392917 -0.00708333)
(-0.158164 0.392917 -0.00708333)
(-0.156079 0.392917 -0.00708333)
(-0.153993 0.392917 -0.00708333)
(-0.151908 0.392917 -0.00708333)
(-0.149823 0.392917 -0.00708333)
(-0.147738 0.392917 -0.00708333)
(-0.145652 0.392917 -0.00708333)
(-0.143567 0.392917 -0.00708333)
(-0.141482 0.392917 -0.00708333)
(-0.139396 0.392917 -0.00708333)
(-0.137311 0.392917 -0.00708333)
(-0.135226 0.392917 -0.00708333)
(-0.13314 0.392917 -0.00708333)
(-0.131055 0.392917 -0.00708333)
(-0.12897 0.392917 -0.00708333)
(-0.126884 0.392917 -0.00708333)
(-0.124799 0.390873 -0.00708333)
(-0.124799 0.388829 -0.00708333)
(-0.124799 0.386786 -0.00708333)
(-0.124799 0.384742 -0.00708333)
(-0.124799 0.382698 -0.00708333)
(-0.124799 0.380655 -0.00708333)
(-0.124799 0.378611 -0.00708333)
(-0.124799 0.376568 -0.00708333)
(-0.124799 0.374524 -0.00708333)
(-0.124799 0.37248 -0.00708333)
(-0.124799 0.370436 -0.00708333)
(-0.124799 0.368393 -0.00708333)
(-0.124799 0.366349 -0.00708333)
(-0.124799 0.364306 -0.00708333)
(-0.124799 0.362262 -0.00708333)
(-0.124799 0.360218 -0.00708333)
(-0.124799 0.358175 -0.00708333)
(-0.124799 0.356131 -0.00708333)
(-0.124799 0.354087 -0.00708333)
(-0.124799 0.352044 -0.00708333)
(-0.124898 0.392917 -0.00506085)
(-0.124963 0.392917 -0.00303704)
(-0.124996 0.392917 -0.00101244)
(-0.124996 0.392917 0.00101244)
(-0.124963 0.392917 0.00303704)
(-0.124898 0.392917 0.00506085)
(-0.124799 0.390873 0.00708333)
(-0.124799 0.388829 0.00708333)
(-0.124799 0.386786 0.00708333)
(-0.124799 0.384742 0.00708333)
(-0.124799 0.382698 0.00708333)
(-0.124799 0.380655 0.00708333)
(-0.124799 0.378611 0.00708333)
(-0.124799 0.376568 0.00708333)
(-0.124799 0.374524 0.00708333)
(-0.124799 0.37248 0.00708333)
(-0.124799 0.370436 0.00708333)
(-0.124799 0.368393 0.00708333)
(-0.124799 0.366349 0.00708333)
(-0.124799 0.364306 0.00708333)
(-0.124799 0.362262 0.00708333)
(-0.124799 0.360218 0.00708333)
(-0.124799 0.358175 0.00708333)
(-0.124799 0.356131 0.00708333)
(-0.124799 0.354087 0.00708333)
(-0.124799 0.352044 0.00708333)
(-0.2499 0.447917 0.00708333)
(-0.247779 0.45 0.00708333)
(-0.2499 0.445833 0.00708333)
(-0.2499 0.44375 0.00708333)
(-0.2499 0.441667 0.00708333)
(-0.2499 0.439583 0.00708333)
(-0.2499 0.4375 0.00708333)
(-0.2499 0.435417 0.00708333)
(-0.2499 0.433333 0.00708333)
(-0.2499 0.43125 0.00708333)
(-0.2499 0.429167 0.00708333)
(-0.2499 0.427083 0.00708333)
(-0.2499 0.425 0.00708333)
(-0.2499 0.422917 0.00708333)
(-0.2499 0.420833 0.00708333)
(-0.2499 0.41875 0.00708333)
(-0.2499 0.416667 0.00708333)
(-0.2499 0.414583 0.00708333)
(-0.2499 0.4125 0.00708333)
(-0.2499 0.410417 0.00708333)
(-0.2499 0.408333 0.00708333)
(-0.2499 0.40625 0.00708333)
(-0.2499 0.404167 0.00708333)
(-0.2499 0.402083 0.00708333)
(-0.2499 0.4 0.00708333)
(-0.2499 0.397917 0.00708333)
(-0.2499 0.395833 0.00708333)
(-0.2499 0.39375 0.00708333)
(-0.2499 0.391667 0.00708333)
(-0.2499 0.389583 0.00708333)
(-0.2499 0.3875 0.00708333)
(-0.2499 0.385417 0.00708333)
(-0.2499 0.383333 0.00708333)
(-0.2499 0.38125 0.00708333)
(-0.2499 0.379167 0.00708333)
(-0.2499 0.377083 0.00708333)
(-0.2499 0.375 0.00708333)
(-0.2499 0.372917 0.00708333)
(-0.2499 0.370833 0.00708333)
(-0.2499 0.36875 0.00708333)
(-0.2499 0.366667 0.00708333)
(-0.2499 0.364583 0.00708333)
(-0.2499 0.3625 0.00708333)
(-0.2499 0.360417 0.00708333)
(-0.2499 0.358333 0.00708333)
(-0.2499 0.35625 0.00708333)
(-0.2499 0.354167 0.00708333)
(-0.2499 0.352083 0.00708333)
(-0.126884 0.392917 0.00708333)
(-0.12897 0.392917 0.00708333)
(-0.131055 0.392917 0.00708333)
(-0.13314 0.392917 0.00708333)
(-0.135226 0.392917 0.00708333)
(-0.137311 0.392917 0.00708333)
(-0.139396 0.392917 0.00708333)
(-0.141482 0.392917 0.00708333)
(-0.143567 0.392917 0.00708333)
(-0.145652 0.392917 0.00708333)
(-0.147738 0.392917 0.00708333)
(-0.149823 0.392917 0.00708333)
(-0.151908 0.392917 0.00708333)
(-0.153993 0.392917 0.00708333)
(-0.156079 0.392917 0.00708333)
(-0.158164 0.392917 0.00708333)
(-0.160249 0.392917 0.00708333)
(-0.162335 0.392917 0.00708333)
(-0.16442 0.392917 0.00708333)
(-0.166505 0.392917 0.00708333)
(-0.168591 0.392917 0.00708333)
(-0.170676 0.392917 0.00708333)
(-0.172761 0.392917 0.00708333)
(-0.174846 0.392917 0.00708333)
(-0.176932 0.392917 0.00708333)
(-0.179017 0.392917 0.00708333)
(-0.181102 0.392917 0.00708333)
(-0.183188 0.392917 0.00708333)
(-0.185273 0.392917 0.00708333)
(-0.187358 0.392917 0.00708333)
(-0.189444 0.392917 0.00708333)
(-0.191529 0.392917 0.00708333)
(-0.193614 0.392917 0.00708333)
(-0.195699 0.392917 0.00708333)
(-0.197785 0.392917 0.00708333)
(-0.19987 0.392917 0.00708333)
(-0.201955 0.392917 0.00708333)
(-0.204041 0.392917 0.00708333)
(-0.206126 0.392917 0.00708333)
(-0.208211 0.392917 0.00708333)
(-0.210297 0.392917 0.00708333)
(-0.212382 0.39494 0.00708333)
(-0.212382 0.396964 0.00708333)
(-0.212382 0.398988 0.00708333)
(-0.212382 0.401012 0.00708333)
(-0.212382 0.403036 0.00708333)
(-0.212382 0.405059 0.00708333)
(-0.210297 0.407083 0.00708333)
(-0.208211 0.407083 0.00708333)
(-0.206126 0.407083 0.00708333)
(-0.204041 0.407083 0.00708333)
(-0.201955 0.407083 0.00708333)
(-0.19987 0.407083 0.00708333)
(-0.197785 0.407083 0.00708333)
(-0.195699 0.407083 0.00708333)
(-0.193614 0.407083 0.00708333)
(-0.191529 0.407083 0.00708333)
(-0.189444 0.407083 0.00708333)
(-0.187358 0.407083 0.00708333)
(-0.185273 0.407083 0.00708333)
(-0.183188 0.407083 0.00708333)
(-0.181102 0.407083 0.00708333)
(-0.179017 0.407083 0.00708333)
(-0.176932 0.407083 0.00708333)
(-0.174846 0.407083 0.00708333)
(-0.172761 0.407083 0.00708333)
(-0.170676 0.407083 0.00708333)
(-0.168591 0.407083 0.00708333)
(-0.166505 0.407083 0.00708333)
(-0.16442 0.407083 0.00708333)
(-0.162335 0.407083 0.00708333)
(-0.160249 0.407083 0.00708333)
(-0.158164 0.407083 0.00708333)
(-0.156079 0.407083 0.00708333)
(-0.153993 0.407083 0.00708333)
(-0.151908 0.407083 0.00708333)
(-0.149823 0.407083 0.00708333)
(-0.147738 0.407083 0.00708333)
(-0.145652 0.407083 0.00708333)
(-0.143567 0.407083 0.00708333)
(-0.141482 0.407083 0.00708333)
(-0.139396 0.407083 0.00708333)
(-0.137311 0.407083 0.00708333)
(-0.135226 0.407083 0.00708333)
(-0.13314 0.407083 0.00708333)
(-0.131055 0.407083 0.00708333)
(-0.12897 0.407083 0.00708333)
(-0.126884 0.407083 0.00708333)
(-0.124799 0.409127 0.00708333)
(-0.124799 0.411171 0.00708333)
(-0.124799 0.413214 0.00708333)
(-0.124799 0.415258 0.00708333)
(-0.124799 0.417302 0.00708333)
(-0.124799 0.419345 0.00708333)
(-0.124799 0.421389 0.00708333)
(-0.124799 0.423432 0.00708333)
(-0.124799 0.425476 0.00708333)
(-0.124799 0.42752 0.00708333)
(-0.124799 0.429563 0.00708333)
(-0.124799 0.431607 0.00708333)
(-0.124799 0.433651 0.00708333)
(-0.124799 0.435694 0.00708333)
(-0.124799 0.437738 0.00708333)
(-0.124799 0.439782 0.00708333)
(-0.124799 0.441825 0.00708333)
(-0.124799 0.443869 0.00708333)
(-0.124799 0.445913 0.00708333)
(-0.124799 0.447956 0.00708333)
(-0.126919 0.45 0.00708333)
(-0.12904 0.45 0.00708333)
(-0.13116 0.45 0.00708333)
(-0.133281 0.45 0.00708333)
(-0.135401 0.45 0.00708333)
(-0.137521 0.45 0.00708333)
(-0.139642 0.45 0.00708333)
(-0.141762 0.45 0.00708333)
(-0.143882 0.45 0.00708333)
(-0.146003 0.45 0.00708333)
(-0.148123 0.45 0.00708333)
(-0.150243 0.45 0.00708333)
(-0.152364 0.45 0.00708333)
(-0.154484 0.45 0.00708333)
(-0.156604 0.45 0.00708333)
(-0.158725 0.45 0.00708333)
(-0.160845 0.45 0.00708333)
(-0.162965 0.45 0.00708333)
(-0.165086 0.45 0.00708333)
(-0.167206 0.45 0.00708333)
(-0.169326 0.45 0.00708333)
(-0.171447 0.45 0.00708333)
(-0.173567 0.45 0.00708333)
(-0.175688 0.45 0.00708333)
(-0.177808 0.45 0.00708333)
(-0.179928 0.45 0.00708333)
(-0.182048 0.45 0.00708333)
(-0.184169 0.45 0.00708333)
(-0.186289 0.45 0.00708333)
(-0.18841 0.45 0.00708333)
(-0.19053 0.45 0.00708333)
(-0.19265 0.45 0.00708333)
(-0.194771 0.45 0.00708333)
(-0.196891 0.45 0.00708333)
(-0.199011 0.45 0.00708333)
(-0.201132 0.45 0.00708333)
(-0.203252 0.45 0.00708333)
(-0.205372 0.45 0.00708333)
(-0.207493 0.45 0.00708333)
(-0.209613 0.45 0.00708333)
(-0.211733 0.45 0.00708333)
(-0.213854 0.45 0.00708333)
(-0.215974 0.45 0.00708333)
(-0.218094 0.45 0.00708333)
(-0.220215 0.45 0.00708333)
(-0.222335 0.45 0.00708333)
(-0.224456 0.45 0.00708333)
(-0.226576 0.45 0.00708333)
(-0.228696 0.45 0.00708333)
(-0.230816 0.45 0.00708333)
(-0.232937 0.45 0.00708333)
(-0.235057 0.45 0.00708333)
(-0.237178 0.45 0.00708333)
(-0.239298 0.45 0.00708333)
(-0.241418 0.45 0.00708333)
(-0.243539 0.45 0.00708333)
(-0.245659 0.45 0.00708333)
(-0.249949 0.45 -0.00505986)
(-0.249949 0.45 0.00505986)
(-0.249982 0.45 0.00303605)
(-0.249998 0.45 0.00101204)
(-0.249998 0.45 -0.00101204)
(-0.249982 0.45 -0.00303605)
(-0.124898 0.45 -0.00506085)
(-0.124898 0.45 0.00506085)
(-0.124963 0.45 0.00303704)
(-0.124996 0.45 0.00101244)
(-0.124996 0.45 -0.00101244)
(-0.124963 0.45 -0.00303704)
(-0.124898 0.407083 -0.00506085)
(-0.124898 0.407083 0.00506085)
(-0.124963 0.407083 0.00303704)
(-0.124996 0.407083 0.00101244)
(-0.124996 0.407083 -0.00101244)
(-0.124963 0.407083 -0.00303704)
(0.126919 0.35 -0.00708333)
(0.124898 0.35 -0.00506085)
(0.12904 0.35 -0.00708333)
(0.13116 0.35 -0.00708333)
(0.133281 0.35 -0.00708333)
(0.135401 0.35 -0.00708333)
(0.137521 0.35 -0.00708333)
(0.139642 0.35 -0.00708333)
(0.141762 0.35 -0.00708333)
(0.143882 0.35 -0.00708333)
(0.146003 0.35 -0.00708333)
(0.148123 0.35 -0.00708333)
(0.150243 0.35 -0.00708333)
(0.152364 0.35 -0.00708333)
(0.154484 0.35 -0.00708333)
(0.156604 0.35 -0.00708333)
(0.158725 0.35 -0.00708333)
(0.160845 0.35 -0.00708333)
(0.162965 0.35 -0.00708333)
(0.165086 0.35 -0.00708333)
(0.167206 0.35 -0.00708333)
(0.169326 0.35 -0.00708333)
(0.171447 0.35 -0.00708333)
(0.173567 0.35 -0.00708333)
(0.175688 0.35 -0.00708333)
(0.177808 0.35 -0.00708333)
(0.179928 0.35 -0.00708333)
(0.182048 0.35 -0.00708333)
(0.184169 0.35 -0.00708333)
(0.186289 0.35 -0.00708333)
(0.18841 0.35 -0.00708333)
(0.19053 0.35 -0.00708333)
(0.19265 0.35 -0.00708333)
(0.194771 0.35 -0.00708333)
(0.196891 0.35 -0.00708333)
(0.199011 0.35 -0.00708333)
(0.201132 0.35 -0.00708333)
(0.203252 0.35 -0.00708333)
(0.205372 0.35 -0.00708333)
(0.207493 0.35 -0.00708333)
(0.209613 0.35 -0.00708333)
(0.211733 0.35 -0.00708333)
(0.213854 0.35 -0.00708333)
(0.215974 0.35 -0.00708333)
(0.218094 0.35 -0.00708333)
(0.220215 0.35 -0.00708333)
(0.222335 0.35 -0.00708333)
(0.224456 0.35 -0.00708333)
(0.226576 0.35 -0.00708333)
(0.228696 0.35 -0.00708333)
(0.230816 0.35 -0.00708333)
(0.232937 0.35 -0.00708333)
(0.235057 0.35 -0.00708333)
(0.237178 0.35 -0.00708333)
(0.239298 0.35 -0.00708333)
(0.241418 0.35 -0.00708333)
(0.243539 0.35 -0.00708333)
(0.245659 0.35 -0.00708333)
(0.247779 0.35 -0.00708333)
(0.249949 0.35 -0.00505986)
(0.249982 0.35 -0.00303605)
(0.249998 0.35 -0.00101204)
(0.249998 0.35 0.00101204)
(0.249982 0.35 0.00303605)
(0.249949 0.35 0.00505986)
(0.247779 0.35 0.00708333)
(0.245659 0.35 0.00708333)
(0.243539 0.35 0.00708333)
(0.241418 0.35 0.00708333)
(0.239298 0.35 0.00708333)
(0.237178 0.35 0.00708333)
(0.235057 0.35 0.00708333)
(0.232937 0.35 0.00708333)
(0.230816 0.35 0.00708333)
(0.228696 0.35 0.00708333)
(0.226576 0.35 0.00708333)
(0.224456 0.35 0.00708333)
(0.222335 0.35 0.00708333)
(0.220215 0.35 0.00708333)
(0.218094 0.35 0.00708333)
(0.215974 0.35 0.00708333)
(0.213854 0.35 0.00708333)
(0.211733 0.35 0.00708333)
(0.209613 0.35 0.00708333)
(0.207493 0.35 0.00708333)
(0.205372 0.35 0.00708333)
(0.203252 0.35 0.00708333)
(0.201132 0.35 0.00708333)
(0.199011 0.35 0.00708333)
(0.196891 0.35 0.00708333)
(0.194771 0.35 0.00708333)
(0.19265 0.35 0.00708333)
(0.19053 0.35 0.00708333)
(0.18841 0.35 0.00708333)
(0.186289 0.35 0.00708333)
(0.184169 0.35 0.00708333)
(0.182048 0.35 0.00708333)
(0.179928 0.35 0.00708333)
(0.177808 0.35 0.00708333)
(0.175688 0.35 0.00708333)
(0.173567 0.35 0.00708333)
(0.171447 0.35 0.00708333)
(0.169326 0.35 0.00708333)
(0.167206 0.35 0.00708333)
(0.165086 0.35 0.00708333)
(0.162965 0.35 0.00708333)
(0.160845 0.35 0.00708333)
(0.158725 0.35 0.00708333)
(0.156604 0.35 0.00708333)
(0.154484 0.35 0.00708333)
(0.152364 0.35 0.00708333)
(0.150243 0.35 0.00708333)
(0.148123 0.35 0.00708333)
(0.146003 0.35 0.00708333)
(0.143882 0.35 0.00708333)
(0.141762 0.35 0.00708333)
(0.139642 0.35 0.00708333)
(0.137521 0.35 0.00708333)
(0.135401 0.35 0.00708333)
(0.133281 0.35 0.00708333)
(0.13116 0.35 0.00708333)
(0.12904 0.35 0.00708333)
(0.126919 0.35 0.00708333)
(0.124898 0.35 0.00506085)
(0.124963 0.35 0.00303704)
(0.124996 0.35 0.00101244)
(0.124996 0.35 -0.00101244)
(0.124963 0.35 -0.00303704)
(0.124799 0.352044 -0.00708333)
(0.124799 0.354087 -0.00708333)
(0.124799 0.356131 -0.00708333)
(0.124799 0.358175 -0.00708333)
(0.124799 0.360218 -0.00708333)
(0.124799 0.362262 -0.00708333)
(0.124799 0.364306 -0.00708333)
(0.124799 0.366349 -0.00708333)
(0.124799 0.368393 -0.00708333)
(0.124799 0.370436 -0.00708333)
(0.124799 0.37248 -0.00708333)
(0.124799 0.374524 -0.00708333)
(0.124799 0.376568 -0.00708333)
(0.124799 0.378611 -0.00708333)
(0.124799 0.380655 -0.00708333)
(0.124799 0.382698 -0.00708333)
(0.124799 0.384742 -0.00708333)
(0.124799 0.386786 -0.00708333)
(0.124799 0.388829 -0.00708333)
(0.124799 0.390873 -0.00708333)
(0.126884 0.392917 -0.00708333)
(0.12897 0.392917 -0.00708333)
(0.131055 0.392917 -0.00708333)
(0.13314 0.392917 -0.00708333)
(0.135226 0.392917 -0.00708333)
(0.137311 0.392917 -0.00708333)
(0.139396 0.392917 -0.00708333)
(0.141482 0.392917 -0.00708333)
(0.143567 0.392917 -0.00708333)
(0.145652 0.392917 -0.00708333)
(0.147738 0.392917 -0.00708333)
(0.149823 0.392917 -0.00708333)
(0.151908 0.392917 -0.00708333)
(0.153993 0.392917 -0.00708333)
(0.156079 0.392917 -0.00708333)
(0.158164 0.392917 -0.00708333)
(0.160249 0.392917 -0.00708333)
(0.162335 0.392917 -0.00708333)
(0.16442 0.392917 -0.00708333)
(0.166505 0.392917 -0.00708333)
(0.168591 0.392917 -0.00708333)
(0.170676 0.392917 -0.00708333)
(0.172761 0.392917 -0.00708333)
(0.174846 0.392917 -0.00708333)
(0.176932 0.392917 -0.00708333)
(0.179017 0.392917 -0.00708333)
(0.181102 0.392917 -0.00708333)
(0.183188 0.392917 -0.00708333)
(0.185273 0.392917 -0.00708333)
(0.187358 0.392917 -0.00708333)
(0.189444 0.392917 -0.00708333)
(0.191529 0.392917 -0.00708333)
(0.193614 0.392917 -0.00708333)
(0.195699 0.392917 -0.00708333)
(0.197785 0.392917 -0.00708333)
(0.19987 0.392917 -0.00708333)
(0.201955 0.392917 -0.00708333)
(0.204041 0.392917 -0.00708333)
(0.206126 0.392917 -0.00708333)
(0.208211 0.392917 -0.00708333)
(0.210297 0.392917 -0.00708333)
(0.212382 0.39494 -0.00708333)
(0.212382 0.396964 -0.00708333)
(0.212382 0.398988 -0.00708333)
(0.212382 0.401012 -0.00708333)
(0.212382 0.403036 -0.00708333)
(0.212382 0.405059 -0.00708333)
(0.210297 0.407083 -0.00708333)
(0.208211 0.407083 -0.00708333)
(0.206126 0.407083 -0.00708333)
(0.204041 0.407083 -0.00708333)
(0.201955 0.407083 -0.00708333)
(0.19987 0.407083 -0.00708333)
(0.197785 0.407083 -0.00708333)
(0.195699 0.407083 -0.00708333)
(0.193614 0.407083 -0.00708333)
(0.191529 0.407083 -0.00708333)
(0.189444 0.407083 -0.00708333)
(0.187358 0.407083 -0.00708333)
(0.185273 0.407083 -0.00708333)
(0.183188 0.407083 -0.00708333)
(0.181102 0.407083 -0.00708333)
(0.179017 0.407083 -0.00708333)
(0.176932 0.407083 -0.00708333)
(0.174846 0.407083 -0.00708333)
(0.172761 0.407083 -0.00708333)
(0.170676 0.407083 -0.00708333)
(0.168591 0.407083 -0.00708333)
(0.166505 0.407083 -0.00708333)
(0.16442 0.407083 -0.00708333)
(0.162335 0.407083 -0.00708333)
(0.160249 0.407083 -0.00708333)
(0.158164 0.407083 -0.00708333)
(0.156079 0.407083 -0.00708333)
(0.153993 0.407083 -0.00708333)
(0.151908 0.407083 -0.00708333)
(0.149823 0.407083 -0.00708333)
(0.147738 0.407083 -0.00708333)
(0.145652 0.407083 -0.00708333)
(0.143567 0.407083 -0.00708333)
(0.141482 0.407083 -0.00708333)
(0.139396 0.407083 -0.00708333)
(0.137311 0.407083 -0.00708333)
(0.135226 0.407083 -0.00708333)
(0.13314 0.407083 -0.00708333)
(0.131055 0.407083 -0.00708333)
(0.12897 0.407083 -0.00708333)
(0.126884 0.407083 -0.00708333)
(0.124799 0.409127 -0.00708333)
(0.124799 0.411171 -0.00708333)
(0.124799 0.413214 -0.00708333)
(0.124799 0.415258 -0.00708333)
(0.124799 0.417302 -0.00708333)
(0.124799 0.419345 -0.00708333)
(0.124799 0.421389 -0.00708333)
(0.124799 0.423432 -0.00708333)
(0.124799 0.425476 -0.00708333)
(0.124799 0.42752 -0.00708333)
(0.124799 0.429563 -0.00708333)
(0.124799 0.431607 -0.00708333)
(0.124799 0.433651 -0.00708333)
(0.124799 0.435694 -0.00708333)
(0.124799 0.437738 -0.00708333)
(0.124799 0.439782 -0.00708333)
(0.124799 0.441825 -0.00708333)
(0.124799 0.443869 -0.00708333)
(0.124799 0.445913 -0.00708333)
(0.124799 0.447956 -0.00708333)
(0.126919 0.45 -0.00708333)
(0.12904 0.45 -0.00708333)
(0.13116 0.45 -0.00708333)
(0.133281 0.45 -0.00708333)
(0.135401 0.45 -0.00708333)
(0.137521 0.45 -0.00708333)
(0.139642 0.45 -0.00708333)
(0.141762 0.45 -0.00708333)