/*--------------------------------*- C++ -*----------------------------------*\
  =========                 |
  \\      /  F ield         | OpenFOAM: The Open Source CFD Toolbox
   \\    /   O peration     | Website:  https://openfoam.org
    \\  /    A nd           | Version:  10
     \\/     M anipulation  |
\*---------------------------------------------------------------------------*/
FoamFile
{
    format      ascii;
    class       featureEdgeMesh;
    location    "constant/triSurface";
    object      sparger_lower.eMesh;
}
// * * * * * * * * * * * * * * * * * * * * * * * * * * * * * * * * * * * * * //


// points:

2722
(
(-0.00212471 0.22 0.209989)
(-5.14352e-17 0.22 0.21)
(0.00212471 0.22 0.209989)
(0.00424921 0.22 0.209957)
(0.00637327 0.22 0.209903)
(0.00849667 0.22 0.209828)
(0.0106192 0.22 0.209731)
(0.0127407 0.22 0.209613)
(0.0148608 0.22 0.209474)
(0.0169794 0.22 0.209312)
(0.0190963 0.22 0.20913)
(0.0212112 0.22 0.208926)
(0.023324 0.22 0.208701)
(0.0254344 0.22 0.208454)
(0.0275422 0.22 0.208186)
(0.0296471 0.22 0.207897)
(0.031749 0.22 0.207586)
(0.0338477 0.22 0.207254)
(0.0359429 0.22 0.206901)
(0.0380344 0.22 0.206527)
(0.040122 0.22 0.206132)
(0.0422055 0.22 0.205715)
(0.0442847 0.22 0.205278)
(0.0463594 0.22 0.204819)
(0.0484293 0.22 0.204339)
(0.0504943 0.22 0.203839)
(0.0525541 0.22 0.203318)
(0.0546085 0.22 0.202775)
(0.0566573 0.22 0.202213)
(0.0587003 0.22 0.201629)
(0.0607374 0.22 0.201025)
(0.0627681 0.22 0.2004)
(0.0647925 0.22 0.199755)
(0.0668103 0.22 0.199089)
(0.0688212 0.22 0.198403)
(0.070825 0.22 0.197696)
(0.0728216 0.22 0.19697)
(0.0748108 0.22 0.196223)
(0.0767922 0.22 0.195456)
(0.0787659 0.22 0.194669)
(0.0807314 0.22 0.193862)
(0.0826887 0.22 0.193035)
(0.0846376 0.22 0.192189)
(0.0865778 0.22 0.191323)
(0.0885091 0.22 0.190437)
(0.0904313 0.22 0.189532)
(0.0923443 0.22 0.188607)
(0.0942478 0.22 0.187663)
(0.0961417 0.22 0.1867)
(0.0980258 0.22 0.185717)
(0.0998998 0.22 0.184716)
(0.101764 0.22 0.183696)
(0.103617 0.22 0.182657)
(0.10546 0.22 0.181599)
(0.107292 0.22 0.180523)
(0.109113 0.22 0.179428)
(0.110922 0.22 0.178315)
(0.112721 0.22 0.177183)
(0.114508 0.22 0.176034)
(0.116283 0.22 0.174866)
(0.118046 0.22 0.173681)
(0.119797 0.22 0.172478)
(0.121536 0.22 0.171257)
(0.123263 0.22 0.170018)
(0.124977 0.22 0.168763)
(0.126678 0.22 0.167489)
(0.128366 0.22 0.166199)
(0.130041 0.22 0.164892)
(0.131703 0.22 0.163568)
(0.133351 0.22 0.162227)
(0.134985 0.22 0.160869)
(0.136606 0.22 0.159495)
(0.138213 0.22 0.158105)
(0.139805 0.22 0.156699)
(0.141384 0.22 0.155276)
(0.142947 0.22 0.153838)
(0.144497 0.22 0.152384)
(0.146031 0.22 0.150914)
(0.14755 0.22 0.149429)
(0.149055 0.22 0.147928)
(0.150544 0.22 0.146412)
(0.152018 0.22 0.144882)
(0.153476 0.22 0.143336)
(0.154918 0.22 0.141776)
(0.156344 0.22 0.140201)
(0.157755 0.22 0.138612)
(0.159149 0.22 0.137009)
(0.160527 0.22 0.135392)
(0.161889 0.22 0.133761)
(0.163234 0.22 0.132116)
(0.164562 0.22 0.130458)
(0.165874 0.22 0.128786)
(0.167168 0.22 0.127101)
(0.168446 0.22 0.125403)
(0.169706 0.22 0.123693)
(0.170949 0.22 0.121969)
(0.172174 0.22 0.120233)
(0.173382 0.22 0.118485)
(0.174572 0.22 0.116725)
(0.175744 0.22 0.114953)
(0.176898 0.22 0.113169)
(0.178034 0.22 0.111373)
(0.179152 0.22 0.109566)
(0.180251 0.22 0.107748)
(0.181332 0.22 0.105919)
(0.182394 0.22 0.104079)
(0.183438 0.22 0.102228)
(0.184463 0.22 0.100367)
(0.185469 0.22 0.0984952)
(0.186456 0.22 0.0966137)
(0.187424 0.22 0.0947222)
(0.188373 0.22 0.0928211)
(0.189302 0.22 0.0909104)
(0.190212 0.22 0.0889905)
(0.191103 0.22 0.0870614)
(0.191974 0.22 0.0851234)
(0.192825 0.22 0.0831767)
(0.193657 0.22 0.0812216)
(0.194469 0.22 0.079258)
(0.195261 0.22 0.0772864)
(0.196033 0.22 0.0753069)
(0.196785 0.22 0.0733196)
(0.197517 0.22 0.0713248)
(0.198228 0.22 0.0693228)
(0.198919 0.22 0.0673136)
(0.19959 0.22 0.0652976)
(0.200241 0.22 0.0632749)
(0.20087 0.22 0.0612457)
(0.20148 0.22 0.0592102)
(0.202069 0.22 0.0571686)
(0.202637 0.22 0.0551212)
(0.203184 0.22 0.0530682)
(0.203711 0.22 0.0510097)
(0.204216 0.22 0.048946)
(0.204701 0.22 0.0468774)
(0.205165 0.22 0.0448039)
(0.205608 0.22 0.0427258)
(0.206029 0.22 0.0406433)
(0.20643 0.22 0.0385567)
(0.20681 0.22 0.0364661)
(0.207168 0.22 0.0343718)
(0.207505 0.22 0.032274)
(0.207821 0.22 0.0301729)
(0.208116 0.22 0.0280687)
(0.208389 0.22 0.0259616)
(0.208641 0.22 0.0238518)
(0.208872 0.22 0.0217397)
(0.209081 0.22 0.0196253)
(0.209269 0.22 0.0175088)
(0.209435 0.22 0.0153906)
(0.20958 0.22 0.0132708)
(0.209704 0.22 0.0111497)
(0.209806 0.22 0.0090274)
(0.209887 0.22 0.00690419)
(0.209946 0.22 0.00478027)
(0.209983 0.22 0.00265586)
(0.209999 0.22 0.000531187)
(0.209994 0.22 -0.00159355)
(0.209967 0.22 -0.00371812)
(0.209919 0.22 -0.0058423)
(0.209849 0.22 -0.0079659)
(0.209758 0.22 -0.0100887)
(0.209645 0.22 -0.0122104)
(0.20951 0.22 -0.0143309)
(0.209355 0.22 -0.0164499)
(0.209178 0.22 -0.0185673)
(0.208979 0.22 -0.0206827)
(0.208759 0.22 -0.022796)
(0.208518 0.22 -0.024907)
(0.208255 0.22 -0.0270155)
(0.207971 0.22 -0.0291211)
(0.207666 0.22 -0.0312238)
(0.207339 0.22 -0.0333233)
(0.206991 0.22 -0.0354194)
(0.206622 0.22 -0.0375119)
(0.206232 0.22 -0.0396005)
(0.205821 0.22 -0.0416851)
(0.205389 0.22 -0.0437654)
(0.204936 0.22 -0.0458412)
(0.204461 0.22 -0.0479123)
(0.203966 0.22 -0.0499785)
(0.20345 0.22 -0.0520396)
(0.202913 0.22 -0.0540954)
(0.202355 0.22 -0.0561456)
(0.201777 0.22 -0.0581901)
(0.201178 0.22 -0.0602287)
(0.200558 0.22 -0.062261)
(0.199918 0.22 -0.064287)
(0.199257 0.22 -0.0663065)
(0.198576 0.22 -0.0683191)
(0.197875 0.22 -0.0703247)
(0.197153 0.22 -0.0723232)
(0.196411 0.22 -0.0743142)
(0.195649 0.22 -0.0762976)
(0.194867 0.22 -0.0782732)
(0.194065 0.22 -0.0802408)
(0.193244 0.22 -0.0822002)
(0.192402 0.22 -0.0841512)
(0.191541 0.22 -0.0860935)
(0.19066 0.22 -0.0880271)
(0.18976 0.22 -0.0899516)
(0.18884 0.22 -0.0918669)
(0.187901 0.22 -0.0937728)
(0.186942 0.22 -0.0956692)
(0.185965 0.22 -0.0975557)
(0.184968 0.22 -0.0994322)
(0.183953 0.22 -0.101299)
(0.182918 0.22 -0.103155)
(0.181865 0.22 -0.105)
(0.180794 0.22 -0.106835)
(0.179704 0.22 -0.108658)
(0.178595 0.22 -0.110471)
(0.177468 0.22 -0.112272)
(0.176323 0.22 -0.114062)
(0.17516 0.22 -0.11584)
(0.173979 0.22 -0.117607)
(0.17278 0.22 -0.119361)
(0.171564 0.22 -0.121103)
(0.17033 0.22 -0.122832)
(0.169078 0.22 -0.12455)
(0.167809 0.22 -0.126254)
(0.166523 0.22 -0.127945)
(0.16522 0.22 -0.129624)
(0.1639 0.22 -0.131288)
(0.162564 0.22 -0.13294)
(0.16121 0.22 -0.134578)
(0.15984 0.22 -0.136202)
(0.158454 0.22 -0.137812)
(0.157052 0.22 -0.139409)
(0.155633 0.22 -0.14099)
(0.154199 0.22 -0.142558)
(0.152748 0.22 -0.144111)
(0.151283 0.22 -0.145649)
(0.149801 0.22 -0.147172)
(0.148305 0.22 -0.14868)
(0.146793 0.22 -0.150173)
(0.145266 0.22 -0.151651)
(0.143724 0.22 -0.153113)
(0.142167 0.22 -0.154559)
(0.140596 0.22 -0.155989)
(0.139011 0.22 -0.157404)
(0.137411 0.22 -0.158802)
(0.135798 0.22 -0.160184)
(0.13417 0.22 -0.16155)
(0.132528 0.22 -0.162899)
(0.130874 0.22 -0.164232)
(0.129205 0.22 -0.165548)
(0.127524 0.22 -0.166846)
(0.125829 0.22 -0.168128)
(0.124122 0.22 -0.169393)
(0.122401 0.22 -0.17064)
(0.120669 0.22 -0.17187)
(0.118923 0.22 -0.173082)
(0.117166 0.22 -0.174276)
(0.115397 0.22 -0.175452)
(0.113616 0.22 -0.176611)
(0.111823 0.22 -0.177751)
(0.110019 0.22 -0.178874)
(0.108204 0.22 -0.179978)
(0.106377 0.22 -0.181063)
(0.10454 0.22 -0.18213)
(0.102692 0.22 -0.183179)
(0.100833 0.22 -0.184208)
(0.098964 0.22 -0.185219)
(0.097085 0.22 -0.186211)
(0.095196 0.22 -0.187184)
(0.0932973 0.22 -0.188137)
(0.091389 0.22 -0.189072)
(0.0894713 0.22 -0.189986)
(0.0875445 0.22 -0.190882)
(0.0856088 0.22 -0.191758)
(0.0836642 0.22 -0.192614)
(0.0817111 0.22 -0.193451)
(0.0797497 0.22 -0.194268)
(0.0777801 0.22 -0.195065)
(0.0758025 0.22 -0.195842)
(0.0738171 0.22 -0.196599)
(0.0718242 0.22 -0.197335)
(0.069824 0.22 -0.198052)
(0.0678166 0.22 -0.198748)
(0.0658022 0.22 -0.199424)
(0.0637811 0.22 -0.20008)
(0.0617535 0.22 -0.200715)
(0.0597196 0.22 -0.201329)
(0.0576796 0.22 -0.201923)
(0.0556336 0.22 -0.202497)
(0.053582 0.22 -0.203049)
(0.0515249 0.22 -0.203581)
(0.0494624 0.22 -0.204092)
(0.047395 0.22 -0.204582)
(0.0453227 0.22 -0.205051)
(0.0432457 0.22 -0.205499)
(0.0411643 0.22 -0.205926)
(0.0390787 0.22 -0.206332)
(0.0369891 0.22 -0.206717)
(0.0348957 0.22 -0.20708)
(0.0327988 0.22 -0.207423)
(0.0306985 0.22 -0.207744)
(0.028595 0.22 -0.208044)
(0.0264886 0.22 -0.208323)
(0.0243795 0.22 -0.20858)
(0.0222679 0.22 -0.208816)
(0.020154 0.22 -0.209031)
(0.0180381 0.22 -0.209224)
(0.0159203 0.22 -0.209396)
(0.0138009 0.22 -0.209546)
(0.0116801 0.22 -0.209675)
(0.00955807 0.22 -0.209782)
(0.00743507 0.22 -0.209868)
(0.00531131 0.22 -0.209933)
(0.003187 0.22 -0.209976)
(0.00106237 0.22 -0.209997)
(-0.00106237 0.22 -0.209997)
(-0.003187 0.22 -0.209976)
(-0.00531131 0.22 -0.209933)
(-0.00743507 0.22 -0.209868)
(-0.00955807 0.22 -0.209782)
(-0.0116801 0.22 -0.209675)
(-0.0138009 0.22 -0.209546)
(-0.0159203 0.22 -0.209396)
(-0.0180381 0.22 -0.209224)
(-0.020154 0.22 -0.209031)
(-0.0222679 0.22 -0.208816)
(-0.0243795 0.22 -0.20858)
(-0.0264886 0.22 -0.208323)
(-0.028595 0.22 -0.208044)
(-0.0306985 0.22 -0.207744)
(-0.0327988 0.22 -0.207423)
(-0.0348957 0.22 -0.20708)
(-0.0369891 0.22 -0.206717)
(-0.0390787 0.22 -0.206332)
(-0.0411643 0.22 -0.205926)
(-0.0432457 0.22 -0.205499)
(-0.0453227 0.22 -0.205051)
(-0.047395 0.22 -0.204582)
(-0.0494624 0.22 -0.204092)
(-0.0515249 0.22 -0.203581)
(-0.053582 0.22 -0.203049)
(-0.0556336 0.22 -0.202497)
(-0.0576796 0.22 -0.201923)
(-0.0597196 0.22 -0.201329)
(-0.0617535 0.22 -0.200715)
(-0.0637811 0.22 -0.20008)
(-0.0658022 0.22 -0.199424)
(-0.0678166 0.22 -0.198748)
(-0.069824 0.22 -0.198052)
(-0.0718242 0.22 -0.197335)
(-0.0738171 0.22 -0.196599)
(-0.0758025 0.22 -0.195842)
(-0.0777801 0.22 -0.195065)
(-0.0797497 0.22 -0.194268)
(-0.0817111 0.22 -0.193451)
(-0.0836642 0.22 -0.192614)
(-0.0856088 0.22 -0.191758)
(-0.0875445 0.22 -0.190882)
(-0.0894713 0.22 -0.189986)
(-0.091389 0.22 -0.189072)
(-0.0932973 0.22 -0.188137)
(-0.095196 0.22 -0.187184)
(-0.097085 0.22 -0.186211)
(-0.098964 0.22 -0.185219)
(-0.100833 0.22 -0.184208)
(-0.102692 0.22 -0.183179)
(-0.10454 0.22 -0.18213)
(-0.106377 0.22 -0.181063)
(-0.108204 0.22 -0.179978)
(-0.110019 0.22 -0.178874)
(-0.111823 0.22 -0.177751)
(-0.113616 0.22 -0.176611)
(-0.115397 0.22 -0.175452)
(-0.117166 0.22 -0.174276)
(-0.118923 0.22 -0.173082)
(-0.120669 0.22 -0.17187)
(-0.122401 0.22 -0.17064)
(-0.124122 0.22 -0.169393)
(-0.125829 0.22 -0.168128)
(-0.127524 0.22 -0.166846)
(-0.129205 0.22 -0.165548)
(-0.130874 0.22 -0.164232)
(-0.132528 0.22 -0.162899)
(-0.13417 0.22 -0.16155)
(-0.135798 0.22 -0.160184)
(-0.137411 0.22 -0.158802)
(-0.139011 0.22 -0.157404)
(-0.140596 0.22 -0.155989)
(-0.142167 0.22 -0.154559)
(-0.143724 0.22 -0.153113)
(-0.145266 0.22 -0.151651)
(-0.146793 0.22 -0.150173)
(-0.148305 0.22 -0.14868)
(-0.149801 0.22 -0.147172)
(-0.151283 0.22 -0.145649)
(-0.152748 0.22 -0.144111)
(-0.154199 0.22 -0.142558)
(-0.155633 0.22 -0.14099)
(-0.157052 0.22 -0.139409)
(-0.158454 0.22 -0.137812)
(-0.15984 0.22 -0.136202)
(-0.16121 0.22 -0.134578)
(-0.162564 0.22 -0.13294)
(-0.1639 0.22 -0.131288)
(-0.16522 0.22 -0.129624)
(-0.166523 0.22 -0.127945)
(-0.167809 0.22 -0.126254)
(-0.169078 0.22 -0.12455)
(-0.17033 0.22 -0.122832)
(-0.171564 0.22 -0.121103)
(-0.17278 0.22 -0.119361)
(-0.173979 0.22 -0.117607)
(-0.17516 0.22 -0.11584)
(-0.176323 0.22 -0.114062)
(-0.177468 0.22 -0.112272)
(-0.178595 0.22 -0.110471)
(-0.179704 0.22 -0.108658)
(-0.180794 0.22 -0.106835)
(-0.181865 0.22 -0.105)
(-0.182918 0.22 -0.103155)
(-0.183953 0.22 -0.101299)
(-0.184968 0.22 -0.0994322)
(-0.185965 0.22 -0.0975557)
(-0.186942 0.22 -0.0956692)
(-0.187901 0.22 -0.0937728)
(-0.18884 0.22 -0.0918669)
(-0.18976 0.22 -0.0899516)
(-0.19066 0.22 -0.0880271)
(-0.191541 0.22 -0.0860935)
(-0.192402 0.22 -0.0841512)
(-0.193244 0.22 -0.0822002)
(-0.194065 0.22 -0.0802408)
(-0.194867 0.22 -0.0782732)
(-0.195649 0.22 -0.0762976)
(-0.196411 0.22 -0.0743142)
(-0.197153 0.22 -0.0723232)
(-0.197875 0.22 -0.0703247)
(-0.198576 0.22 -0.0683191)
(-0.199257 0.22 -0.0663065)
(-0.199918 0.22 -0.064287)
(-0.200558 0.22 -0.062261)
(-0.201178 0.22 -0.0602287)
(-0.201777 0.22 -0.0581901)
(-0.202355 0.22 -0.0561456)
(-0.202913 0.22 -0.0540954)
(-0.20345 0.22 -0.0520396)
(-0.203966 0.22 -0.0499785)
(-0.204461 0.22 -0.0479123)
(-0.204936 0.22 -0.0458412)
(-0.205389 0.22 -0.0437654)
(-0.205821 0.22 -0.0416851)
(-0.206232 0.22 -0.0396005)
(-0.206622 0.22 -0.0375119)
(-0.206991 0.22 -0.0354194)
(-0.207339 0.22 -0.0333233)
(-0.207666 0.22 -0.0312238)
(-0.207971 0.22 -0.0291211)
(-0.208255 0.22 -0.0270155)
(-0.208518 0.22 -0.024907)
(-0.208759 0.22 -0.022796)
(-0.208979 0.22 -0.0206827)
(-0.209178 0.22 -0.0185673)
(-0.209355 0.22 -0.0164499)
(-0.20951 0.22 -0.0143309)
(-0.209645 0.22 -0.0122104)
(-0.209758 0.22 -0.0100887)
(-0.209849 0.22 -0.0079659)
(-0.209919 0.22 -0.0058423)
(-0.209967 0.22 -0.00371812)
(-0.209994 0.22 -0.00159355)
(-0.209999 0.22 0.000531187)
(-0.209983 0.22 0.00265586)
(-0.209946 0.22 0.00478027)
(-0.209887 0.22 0.00690419)
(-0.209806 0.22 0.0090274)
(-0.209704 0.22 0.0111497)
(-0.20958 0.22 0.0132708)
(-0.209435 0.22 0.0153906)
(-0.209269 0.22 0.0175088)
(-0.209081 0.22 0.0196253)
(-0.208872 0.22 0.0217397)
(-0.208641 0.22 0.0238518)
(-0.208389 0.22 0.0259616)
(-0.208116 0.22 0.0280687)
(-0.207821 0.22 0.0301729)
(-0.207505 0.22 0.032274)
(-0.207168 0.22 0.0343718)
(-0.20681 0.22 0.0364661)
(-0.20643 0.22 0.0385567)
(-0.206029 0.22 0.0406433)
(-0.205608 0.22 0.0427258)
(-0.205165 0.22 0.0448039)
(-0.204701 0.22 0.0468774)
(-0.204216 0.22 0.048946)
(-0.203711 0.22 0.0510097)
(-0.203184 0.22 0.0530682)
(-0.202637 0.22 0.0551212)
(-0.202069 0.22 0.0571686)
(-0.20148 0.22 0.0592102)
(-0.20087 0.22 0.0612457)
(-0.200241 0.22 0.0632749)
(-0.19959 0.22 0.0652976)
(-0.198919 0.22 0.0673136)
(-0.198228 0.22 0.0693228)
(-0.197517 0.22 0.0713248)
(-0.196785 0.22 0.0733196)
(-0.196033 0.22 0.0753069)
(-0.195261 0.22 0.0772864)
(-0.194469 0.22 0.079258)
(-0.193657 0.22 0.0812216)
(-0.192825 0.22 0.0831767)
(-0.191974 0.22 0.0851234)
(-0.191103 0.22 0.0870614)
(-0.190212 0.22 0.0889905)
(-0.189302 0.22 0.0909104)
(-0.188373 0.22 0.0928211)
(-0.187424 0.22 0.0947222)
(-0.186456 0.22 0.0966137)
(-0.185469 0.22 0.0984952)
(-0.184463 0.22 0.100367)
(-0.183438 0.22 0.102228)
(-0.182394 0.22 0.104079)
(-0.181332 0.22 0.105919)
(-0.180251 0.22 0.107748)
(-0.179152 0.22 0.109566)
(-0.178034 0.22 0.111373)
(-0.176898 0.22 0.113169)
(-0.175744 0.22 0.114953)
(-0.174572 0.22 0.116725)
(-0.173382 0.22 0.118485)
(-0.172174 0.22 0.120233)
(-0.170949 0.22 0.121969)
(-0.169706 0.22 0.123693)
(-0.168446 0.22 0.125403)
(-0.167168 0.22 0.127101)
(-0.165874 0.22 0.128786)
(-0.164562 0.22 0.130458)
(-0.163234 0.22 0.132116)
(-0.161889 0.22 0.133761)
(-0.160527 0.22 0.135392)
(-0.159149 0.22 0.137009)
(-0.157755 0.22 0.138612)
(-0.156344 0.22 0.140201)
(-0.154918 0.22 0.141776)
(-0.153476 0.22 0.143336)
(-0.152018 0.22 0.144882)
(-0.150544 0.22 0.146412)
(-0.149055 0.22 0.147928)
(-0.14755 0.22 0.149429)
(-0.146031 0.22 0.150914)
(-0.144497 0.22 0.152384)
(-0.142947 0.22 0.153838)
(-0.141384 0.22 0.155276)
(-0.139805 0.22 0.156699)
(-0.138213 0.22 0.158105)
(-0.136606 0.22 0.159495)
(-0.134985 0.22 0.160869)
(-0.133351 0.22 0.162227)
(-0.131703 0.22 0.163568)
(-0.130041 0.22 0.164892)
(-0.128366 0.22 0.166199)
(-0.126678 0.22 0.167489)
(-0.124977 0.22 0.168763)
(-0.123263 0.22 0.170018)
(-0.121536 0.22 0.171257)
(-0.119797 0.22 0.172478)
(-0.118046 0.22 0.173681)
(-0.116283 0.22 0.174866)
(-0.114508 0.22 0.176034)
(-0.112721 0.22 0.177183)
(-0.110922 0.22 0.178315)
(-0.109113 0.22 0.179428)
(-0.107292 0.22 0.180523)
(-0.10546 0.22 0.181599)
(-0.103617 0.22 0.182657)
(-0.101764 0.22 0.183696)
(-0.0998998 0.22 0.184716)
(-0.0980258 0.22 0.185717)
(-0.0961417 0.22 0.1867)
(-0.0942478 0.22 0.187663)
(-0.0923443 0.22 0.188607)
(-0.0904313 0.22 0.189532)
(-0.0885091 0.22 0.190437)
(-0.0865778 0.22 0.191323)
(-0.0846376 0.22 0.192189)
(-0.0826887 0.22 0.193035)
(-0.0807314 0.22 0.193862)
(-0.0787659 0.22 0.194669)
(-0.0767922 0.22 0.195456)
(-0.0748108 0.22 0.196223)
(-0.0728216 0.22 0.19697)
(-0.070825 0.22 0.197696)
(-0.0688212 0.22 0.198403)
(-0.0668103 0.22 0.199089)
(-0.0647925 0.22 0.199755)
(-0.0627681 0.22 0.2004)
(-0.0607374 0.22 0.201025)
(-0.0587003 0.22 0.201629)
(-0.0566573 0.22 0.202213)
(-0.0546085 0.22 0.202775)
(-0.0525541 0.22 0.203318)
(-0.0504943 0.22 0.203839)
(-0.0484293 0.22 0.204339)
(-0.0463594 0.22 0.204819)
(-0.0442847 0.22 0.205278)
(-0.0422055 0.22 0.205715)
(-0.040122 0.22 0.206132)
(-0.0380344 0.22 0.206527)
(-0.0359429 0.22 0.206901)
(-0.0338477 0.22 0.207254)
(-0.031749 0.22 0.207586)
(-0.0296471 0.22 0.207897)
(-0.0275422 0.22 0.208186)
(-0.0254344 0.22 0.208454)
(-0.023324 0.22 0.208701)
(-0.0212112 0.22 0.208926)
(-0.0190963 0.22 0.20913)
(-0.0169794 0.22 0.209312)
(-0.0148608 0.22 0.209474)
(-0.0127407 0.22 0.209613)
(-0.0106192 0.22 0.209731)
(-0.00849667 0.22 0.209828)
(-0.00637327 0.22 0.209903)
(-0.00424921 0.22 0.209957)
(0.00212267 0.22 0.249991)
(-6.12323e-17 0.22 0.25)
(-0.00212267 0.22 0.249991)
(-0.00424519 0.22 0.249964)
(-0.0063674 0.22 0.249919)
(-0.00848916 0.22 0.249856)
(-0.0106103 0.22 0.249775)
(-0.0127307 0.22 0.249676)
(-0.0148501 0.22 0.249559)
(-0.0169685 0.22 0.249424)
(-0.0190857 0.22 0.24927)
(-0.0212015 0.22 0.249099)
(-0.0233157 0.22 0.24891)
(-0.0254283 0.22 0.248703)
(-0.0275391 0.22 0.248479)
(-0.0296478 0.22 0.248236)
(-0.0317544 0.22 0.247975)
(-0.0338588 0.22 0.247697)
(-0.0359607 0.22 0.2474)
(-0.03806 0.22 0.247086)
(-0.0401565 0.22 0.246754)
(-0.0422502 0.22 0.246404)
(-0.0443408 0.22 0.246036)
(-0.0464282 0.22 0.245651)
(-0.0485123 0.22 0.245248)
(-0.0505929 0.22 0.244827)
(-0.0526698 0.22 0.244389)
(-0.054743 0.22 0.243933)
(-0.0568121 0.22 0.243459)
(-0.0588772 0.22 0.242968)
(-0.0609381 0.22 0.242459)
(-0.0629945 0.22 0.241933)
(-0.0650464 0.22 0.24139)
(-0.0670936 0.22 0.240829)
(-0.069136 0.22 0.24025)
(-0.0711734 0.22 0.239655)
(-0.0732057 0.22 0.239042)
(-0.0752327 0.22 0.238412)
(-0.0772543 0.22 0.237764)
(-0.0792703 0.22 0.2371)
(-0.0812805 0.22 0.236418)
(-0.083285 0.22 0.235719)
(-0.0852834 0.22 0.235004)
(-0.0872756 0.22 0.234271)
(-0.0892616 0.22 0.233522)
(-0.0912412 0.22 0.232755)
(-0.0932141 0.22 0.231972)
(-0.0951804 0.22 0.231172)
(-0.0971398 0.22 0.230356)
(-0.0990921 0.22 0.229523)
(-0.101037 0.22 0.228673)
(-0.102975 0.22 0.227807)
(-0.104906 0.22 0.226925)
(-0.106829 0.22 0.226026)
(-0.108744 0.22 0.225111)
(-0.110652 0.22 0.224179)
(-0.112551 0.22 0.223231)
(-0.114442 0.22 0.222268)
(-0.116325 0.22 0.221288)
(-0.1182 0.22 0.220292)
(-0.120066 0.22 0.219281)
(-0.121924 0.22 0.218253)
(-0.123773 0.22 0.21721)
(-0.125612 0.22 0.216152)
(-0.127443 0.22 0.215077)
(-0.129265 0.22 0.213987)
(-0.131077 0.22 0.212882)
(-0.13288 0.22 0.211762)
(-0.134673 0.22 0.210626)
(-0.136456 0.22 0.209475)
(-0.13823 0.22 0.208309)
(-0.139994 0.22 0.207127)
(-0.141747 0.22 0.205931)
(-0.143491 0.22 0.20472)
(-0.145224 0.22 0.203495)
(-0.146946 0.22 0.202254)
(-0.148658 0.22 0.200999)
(-0.15036 0.22 0.19973)
(-0.15205 0.22 0.198446)
(-0.153729 0.22 0.197148)
(-0.155398 0.22 0.195835)
(-0.157055 0.22 0.194509)
(-0.158701 0.22 0.193168)
(-0.160335 0.22 0.191814)
(-0.161958 0.22 0.190446)
(-0.163569 0.22 0.189064)
(-0.165169 0.22 0.187668)
(-0.166756 0.22 0.186259)
(-0.168332 0.22 0.184836)
(-0.169895 0.22 0.1834)
(-0.171446 0.22 0.181951)
(-0.172985 0.22 0.180489)
(-0.174511 0.22 0.179014)
(-0.176025 0.22 0.177526)
(-0.177526 0.22 0.176025)
(-0.179014 0.22 0.174511)
(-0.180489 0.22 0.172985)
(-0.181951 0.22 0.171446)
(-0.1834 0.22 0.169895)
(-0.184836 0.22 0.168332)
(-0.186259 0.22 0.166756)
(-0.187668 0.22 0.165169)
(-0.189064 0.22 0.163569)
(-0.190446 0.22 0.161958)
(-0.191814 0.22 0.160335)
(-0.193168 0.22 0.158701)
(-0.194509 0.22 0.157055)
(-0.195835 0.22 0.155398)
(-0.197148 0.22 0.153729)
(-0.198446 0.22 0.15205)
(-0.19973 0.22 0.15036)
(-0.200999 0.22 0.148658)
(-0.202254 0.22 0.146946)
(-0.203495 0.22 0.145224)
(-0.20472 0.22 0.143491)
(-0.205931 0.22 0.141747)
(-0.207127 0.22 0.139994)
(-0.208309 0.22 0.13823)
(-0.209475 0.22 0.136456)
(-0.210626 0.22 0.134673)
(-0.211762 0.22 0.13288)
(-0.212882 0.22 0.131077)
(-0.213987 0.22 0.129265)
(-0.215077 0.22 0.127443)
(-0.216152 0.22 0.125612)
(-0.21721 0.22 0.123773)
(-0.218253 0.22 0.121924)
(-0.219281 0.22 0.120066)
(-0.220292 0.22 0.1182)
(-0.221288 0.22 0.116325)
(-0.222268 0.22 0.114442)
(-0.223231 0.22 0.112551)
(-0.224179 0.22 0.110652)
(-0.225111 0.22 0.108744)
(-0.226026 0.22 0.106829)
(-0.226925 0.22 0.104906)
(-0.227807 0.22 0.102975)
(-0.228673 0.22 0.101037)
(-0.229523 0.22 0.0990921)
(-0.230356 0.22 0.0971398)
(-0.231172 0.22 0.0951804)
(-0.231972 0.22 0.0932141)
(-0.232755 0.22 0.0912412)
(-0.233522 0.22 0.0892616)
(-0.234271 0.22 0.0872756)
(-0.235004 0.22 0.0852834)
(-0.235719 0.22 0.083285)
(-0.236418 0.22 0.0812805)
(-0.2371 0.22 0.0792703)
(-0.237764 0.22 0.0772543)
(-0.238412 0.22 0.0752327)
(-0.239042 0.22 0.0732057)
(-0.239655 0.22 0.0711734)
(-0.24025 0.22 0.069136)
(-0.240829 0.22 0.0670936)
(-0.24139 0.22 0.0650464)
(-0.241933 0.22 0.0629945)
(-0.242459 0.22 0.0609381)
(-0.242968 0.22 0.0588772)
(-0.243459 0.22 0.0568121)
(-0.243933 0.22 0.054743)
(-0.244389 0.22 0.0526698)
(-0.244827 0.22 0.0505929)
(-0.245248 0.22 0.0485123)
(-0.245651 0.22 0.0464282)
(-0.246036 0.22 0.0443408)
(-0.246404 0.22 0.0422502)
(-0.246754 0.22 0.0401565)
(-0.247086 0.22 0.03806)
(-0.2474 0.22 0.0359607)
(-0.247697 0.22 0.0338588)
(-0.247975 0.22 0.0317544)
(-0.248236 0.22 0.0296478)
(-0.248479 0.22 0.0275391)
(-0.248703 0.22 0.0254283)
(-0.24891 0.22 0.0233157)
(-0.249099 0.22 0.0212015)
(-0.24927 0.22 0.0190857)
(-0.249424 0.22 0.0169685)
(-0.249559 0.22 0.0148501)
(-0.249676 0.22 0.0127307)
(-0.249775 0.22 0.0106103)
(-0.249856 0.22 0.00848916)
(-0.249919 0.22 0.0063674)
(-0.249964 0.22 0.00424519)
(-0.249991 0.22 0.00212267)
(-0.25 0.22 2.39657e-15)
(-0.249991 0.22 -0.00212267)
(-0.249964 0.22 -0.00424519)
(-0.249919 0.22 -0.0063674)
(-0.249856 0.22 -0.00848916)
(-0.249775 0.22 -0.0106103)
(-0.249676 0.22 -0.0127307)
(-0.249559 0.22 -0.0148501)
(-0.249424 0.22 -0.0169685)
(-0.24927 0.22 -0.0190857)
(-0.249099 0.22 -0.0212015)
(-0.24891 0.22 -0.0233157)
(-0.248703 0.22 -0.0254283)
(-0.248479 0.22 -0.0275391)
(-0.248236 0.22 -0.0296478)
(-0.247975 0.22 -0.0317544)
(-0.247697 0.22 -0.0338588)
(-0.2474 0.22 -0.0359607)
(-0.247086 0.22 -0.03806)
(-0.246754 0.22 -0.0401565)
(-0.246404 0.22 -0.0422502)
(-0.246036 0.22 -0.0443408)
(-0.245651 0.22 -0.0464282)
(-0.245248 0.22 -0.0485123)
(-0.244827 0.22 -0.0505929)
(-0.244389 0.22 -0.0526698)
(-0.243933 0.22 -0.054743)
(-0.243459 0.22 -0.0568121)
(-0.242968 0.22 -0.0588772)
(-0.242459 0.22 -0.0609381)
(-0.241933 0.22 -0.0629945)
(-0.24139 0.22 -0.0650464)
(-0.240829 0.22 -0.0670936)
(-0.24025 0.22 -0.069136)
(-0.239655 0.22 -0.0711734)
(-0.239042 0.22 -0.0732057)
(-0.238412 0.22 -0.0752327)
(-0.237764 0.22 -0.0772543)
(-0.2371 0.22 -0.0792703)
(-0.236418 0.22 -0.0812805)
(-0.235719 0.22 -0.083285)
(-0.235004 0.22 -0.0852834)
(-0.234271 0.22 -0.0872756)
(-0.233522 0.22 -0.0892616)
(-0.232755 0.22 -0.0912412)
(-0.231972 0.22 -0.0932141)
(-0.231172 0.22 -0.0951804)
(-0.230356 0.22 -0.0971398)
(-0.229523 0.22 -0.0990921)
(-0.228673 0.22 -0.101037)
(-0.227807 0.22 -0.102975)
(-0.226925 0.22 -0.104906)
(-0.226026 0.22 -0.106829)
(-0.225111 0.22 -0.108744)
(-0.224179 0.22 -0.110652)
(-0.223231 0.22 -0.112551)
(-0.222268 0.22 -0.114442)
(-0.221288 0.22 -0.116325)
(-0.220292 0.22 -0.1182)
(-0.219281 0.22 -0.120066)
(-0.218253 0.22 -0.121924)
(-0.21721 0.22 -0.123773)
(-0.216152 0.22 -0.125612)
(-0.215077 0.22 -0.127443)
(-0.213987 0.22 -0.129265)
(-0.212882 0.22 -0.131077)
(-0.211762 0.22 -0.13288)
(-0.210626 0.22 -0.134673)
(-0.209475 0.22 -0.136456)
(-0.208309 0.22 -0.13823)
(-0.207127 0.22 -0.139994)
(-0.205931 0.22 -0.141747)
(-0.20472 0.22 -0.143491)
(-0.203495 0.22 -0.145224)
(-0.202254 0.22 -0.146946)
(-0.200999 0.22 -0.148658)
(-0.19973 0.22 -0.15036)
(-0.198446 0.22 -0.15205)
(-0.197148 0.22 -0.153729)
(-0.195835 0.22 -0.155398)
(-0.194509 0.22 -0.157055)
(-0.193168 0.22 -0.158701)
(-0.191814 0.22 -0.160335)
(-0.190446 0.22 -0.161958)
(-0.189064 0.22 -0.163569)
(-0.187668 0.22 -0.165169)
(-0.186259 0.22 -0.166756)
(-0.184836 0.22 -0.168332)
(-0.1834 0.22 -0.169895)
(-0.181951 0.22 -0.171446)
(-0.180489 0.22 -0.172985)
(-0.179014 0.22 -0.174511)
(-0.177526 0.22 -0.176025)
(-0.176025 0.22 -0.177526)
(-0.174511 0.22 -0.179014)
(-0.172985 0.22 -0.180489)
(-0.171446 0.22 -0.181951)
(-0.169895 0.22 -0.1834)
(-0.168332 0.22 -0.184836)
(-0.166756 0.22 -0.186259)
(-0.165169 0.22 -0.187668)
(-0.163569 0.22 -0.189064)
(-0.161958 0.22 -0.190446)
(-0.160335 0.22 -0.191814)
(-0.158701 0.22 -0.193168)
(-0.157055 0.22 -0.194509)
(-0.155398 0.22 -0.195835)
(-0.153729 0.22 -0.197148)
(-0.15205 0.22 -0.198446)
(-0.15036 0.22 -0.19973)
(-0.148658 0.22 -0.200999)
(-0.146946 0.22 -0.202254)
(-0.145224 0.22 -0.203495)
(-0.143491 0.22 -0.20472)
(-0.141747 0.22 -0.205931)
(-0.139994 0.22 -0.207127)
(-0.13823 0.22 -0.208309)
(-0.136456 0.22 -0.209475)
(-0.134673 0.22 -0.210626)
(-0.13288 0.22 -0.211762)
(-0.131077 0.22 -0.212882)
(-0.129265 0.22 -0.213987)
(-0.127443 0.22 -0.215077)
(-0.125612 0.22 -0.216152)
(-0.123773 0.22 -0.21721)
(-0.121924 0.22 -0.218253)
(-0.120066 0.22 -0.219281)
(-0.1182 0.22 -0.220292)
(-0.116325 0.22 -0.221288)
(-0.114442 0.22 -0.222268)
(-0.112551 0.22 -0.223231)
(-0.110652 0.22 -0.224179)
(-0.108744 0.22 -0.225111)
(-0.106829 0.22 -0.226026)
(-0.104906 0.22 -0.226925)
(-0.102975 0.22 -0.227807)
(-0.101037 0.22 -0.228673)
(-0.0990921 0.22 -0.229523)
(-0.0971398 0.22 -0.230356)
(-0.0951804 0.22 -0.231172)
(-0.0932141 0.22 -0.231972)
(-0.0912412 0.22 -0.232755)
(-0.0892616 0.22 -0.233522)
(-0.0872756 0.22 -0.234271)
(-0.0852834 0.22 -0.235004)
(-0.083285 0.22 -0.235719)
(-0.0812805 0.22 -0.236418)
(-0.0792703 0.22 -0.2371)
(-0.0772543 0.22 -0.237764)
(-0.0752327 0.22 -0.238412)
(-0.0732057 0.22 -0.239042)
(-0.0711734 0.22 -0.239655)
(-0.069136 0.22 -0.24025)
(-0.0670936 0.22 -0.240829)
(-0.0650464 0.22 -0.24139)
(-0.0629945 0.22 -0.241933)
(-0.0609381 0.22 -0.242459)
(-0.0588772 0.22 -0.242968)
(-0.0568121 0.22 -0.243459)
(-0.054743 0.22 -0.243933)
(-0.0526698 0.22 -0.244389)
(-0.0505929 0.22 -0.244827)
(-0.0485123 0.22 -0.245248)
(-0.0464282 0.22 -0.245651)
(-0.0443408 0.22 -0.246036)
(-0.0422502 0.22 -0.246404)
(-0.0401565 0.22 -0.246754)
(-0.03806 0.22 -0.247086)
(-0.0359607 0.22 -0.2474)
(-0.0338588 0.22 -0.247697)
(-0.0317544 0.22 -0.247975)
(-0.0296478 0.22 -0.248236)
(-0.0275391 0.22 -0.248479)
(-0.0254283 0.22 -0.248703)
(-0.0233157 0.22 -0.24891)
(-0.0212015 0.22 -0.249099)
(-0.0190857 0.22 -0.24927)
(-0.0169685 0.22 -0.249424)
(-0.0148501 0.22 -0.249559)
(-0.0127307 0.22 -0.249676)
(-0.0106103 0.22 -0.249775)
(-0.00848916 0.22 -0.249856)
(-0.0063674 0.22 -0.249919)
(-0.00424519 0.22 -0.249964)
(-0.00212267 0.22 -0.249991)
(-6.74174e-15 0.22 -0.25)
(0.00212267 0.22 -0.249991)
(0.00424519 0.22 -0.249964)
(0.0063674 0.22 -0.249919)
(0.00848916 0.22 -0.249856)
(0.0106103 0.22 -0.249775)
(0.0127307 0.22 -0.249676)
(0.0148501 0.22 -0.249559)
(0.0169685 0.22 -0.249424)
(0.0190857 0.22 -0.24927)
(0.0212015 0.22 -0.249099)
(0.0233157 0.22 -0.24891)
(0.0254283 0.22 -0.248703)
(0.0275391 0.22 -0.248479)
(0.0296478 0.22 -0.248236)
(0.0317544 0.22 -0.247975)
(0.0338588 0.22 -0.247697)
(0.0359607 0.22 -0.2474)
(0.03806 0.22 -0.247086)
(0.0401565 0.22 -0.246754)
(0.0422502 0.22 -0.246404)
(0.0443408 0.22 -0.246036)
(0.0464282 0.22 -0.245651)
(0.0485123 0.22 -0.245248)
(0.0505929 0.22 -0.244827)
(0.0526698 0.22 -0.244389)
(0.054743 0.22 -0.243933)
(0.0568121 0.22 -0.243459)
(0.0588772 0.22 -0.242968)
(0.0609381 0.22 -0.242459)
(0.0629945 0.22 -0.241933)
(0.0650464 0.22 -0.24139)
(0.0670936 0.22 -0.240829)
(0.069136 0.22 -0.24025)
(0.0711734 0.22 -0.239655)
(0.0732057 0.22 -0.239042)
(0.0752327 0.22 -0.238412)
(0.0772543 0.22 -0.237764)
(0.0792703 0.22 -0.2371)
(0.0812805 0.22 -0.236418)
(0.083285 0.22 -0.235719)
(0.0852834 0.22 -0.235004)
(0.0872756 0.22 -0.234271)
(0.0892616 0.22 -0.233522)
(0.0912412 0.22 -0.232755)
(0.0932141 0.22 -0.231972)
(0.0951804 0.22 -0.231172)
(0.0971398 0.22 -0.230356)
(0.0990921 0.22 -0.229523)
(0.101037 0.22 -0.228673)
(0.102975 0.22 -0.227807)
(0.104906 0.22 -0.226925)
(0.106829 0.22 -0.226026)
(0.108744 0.22 -0.225111)
(0.110652 0.22 -0.224179)
(0.112551 0.22 -0.223231)
(0.114442 0.22 -0.222268)
(0.116325 0.22 -0.221288)
(0.1182 0.22 -0.220292)
(0.120066 0.22 -0.219281)
(0.121924 0.22 -0.218253)
(0.123773 0.22 -0.21721)
(0.125612 0.22 -0.216152)
(0.127443 0.22 -0.215077)
(0.129265 0.22 -0.213987)
(0.131077 0.22 -0.212882)
(0.13288 0.22 -0.211762)
(0.134673 0.22 -0.210626)
(0.136456 0.22 -0.209475)
(0.13823 0.22 -0.208309)
(0.139994 0.22 -0.207127)
(0.141747 0.22 -0.205931)
(0.143491 0.22 -0.20472)
(0.145224 0.22 -0.203495)
(0.146946 0.22 -0.202254)
(0.148658 0.22 -0.200999)
(0.15036 0.22 -0.19973)
(0.15205 0.22 -0.198446)
(0.153729 0.22 -0.197148)
(0.155398 0.22 -0.195835)
(0.157055 0.22 -0.194509)
(0.158701 0.22 -0.193168)
(0.160335 0.22 -0.191814)
(0.161958 0.22 -0.190446)
(0.163569 0.22 -0.189064)
(0.165169 0.22 -0.187668)
(0.166756 0.22 -0.186259)
(0.168332 0.22 -0.184836)
(0.169895 0.22 -0.1834)
(0.171446 0.22 -0.181951)
(0.172985 0.22 -0.180489)
(0.174511 0.22 -0.179014)
(0.176025 0.22 -0.177526)
(0.177526 0.22 -0.176025)
(0.179014 0.22 -0.174511)
(0.180489 0.22 -0.172985)
(0.181951 0.22 -0.171446)
(0.1834 0.22 -0.169895)
(0.184836 0.22 -0.168332)
(0.186259 0.22 -0.166756)
(0.187668 0.22 -0.165169)
(0.189064 0.22 -0.163569)
(0.190446 0.22 -0.161958)
(0.191814 0.22 -0.160335)
(0.193168 0.22 -0.158701)
(0.194509 0.22 -0.157055)
(0.195835 0.22 -0.155398)
(0.197148 0.22 -0.153729)
(0.198446 0.22 -0.15205)
(0.19973 0.22 -0.15036)
(0.200999 0.22 -0.148658)
(0.202254 0.22 -0.146946)
(0.203495 0.22 -0.145224)
(0.20472 0.22 -0.143491)