/*--------------------------------*- C++ -*----------------------------------*\
  =========                 |
  \\      /  F ield         | OpenFOAM: The Open Source CFD Toolbox
   \\    /   O peration     | Website:  https://openfoam.org
    \\  /    A nd           | Version:  10
     \\/     M anipulation  |
\*---------------------------------------------------------------------------*/
FoamFile
{
    format      ascii;
    class       featureEdgeMesh;
    location    "constant/triSurface";
    object      tankwall.eMesh;
}
// * * * * * * * * * * * * * * * * * * * * * * * * * * * * * * * * * * * * * //


// points:

5028
(
(0.00212438 3 0.849997)
(-2.0819e-16 3 0.85)
(-0.00212438 3 0.849997)
(-0.00424876 3 0.849989)
(-0.0063731 3 0.849976)
(-0.0084974 3 0.849958)
(-0.0106217 3 0.849934)
(-0.0127458 3 0.849904)
(-0.0148699 3 0.84987)
(-0.016994 3 0.84983)
(-0.0191179 3 0.849785)
(-0.0212416 3 0.849734)
(-0.0233653 3 0.849679)
(-0.0254888 3 0.849618)
(-0.0276122 3 0.849551)
(-0.0297353 3 0.84948)
(-0.0318583 3 0.849403)
(-0.0339811 3 0.84932)
(-0.0361037 3 0.849233)
(-0.0382261 3 0.84914)
(-0.0403482 3 0.849042)
(-0.04247 3 0.848938)
(-0.0445916 3 0.84883)
(-0.046713 3 0.848715)
(-0.048834 3 0.848596)
(-0.0509547 3 0.848471)
(-0.0530751 3 0.848341)
(-0.0551952 3 0.848206)
(-0.0573149 3 0.848065)
(-0.0594343 3 0.84792)
(-0.0615533 3 0.847768)
(-0.0636719 3 0.847612)
(-0.0657901 3 0.84745)
(-0.0679079 3 0.847283)
(-0.0700253 3 0.847111)
(-0.0721422 3 0.846933)
(-0.0742587 3 0.84675)
(-0.0763748 3 0.846562)
(-0.0784903 3 0.846368)
(-0.0806054 3 0.846169)
(-0.0827199 3 0.845965)
(-0.084834 3 0.845756)
(-0.0869475 3 0.845541)
(-0.0890605 3 0.845321)
(-0.0911729 3 0.845096)
(-0.0932847 3 0.844866)
(-0.095396 3 0.84463)
(-0.0975066 3 0.844389)
(-0.0996167 3 0.844142)
(-0.101726 3 0.843891)
(-0.103835 3 0.843634)
(-0.105943 3 0.843372)
(-0.108051 3 0.843104)
(-0.110157 3 0.842832)
(-0.112264 3 0.842554)
(-0.114369 3 0.842271)
(-0.116474 3 0.841982)
(-0.118578 3 0.841688)
(-0.120681 3 0.841389)
(-0.122783 3 0.841085)
(-0.124885 3 0.840776)
(-0.126986 3 0.840461)
(-0.129086 3 0.840141)
(-0.131186 3 0.839816)
(-0.133284 3 0.839485)
(-0.135382 3 0.839149)
(-0.137479 3 0.838808)
(-0.139574 3 0.838462)
(-0.14167 3 0.838111)
(-0.143764 3 0.837754)
(-0.145857 3 0.837392)
(-0.14795 3 0.837025)
(-0.150041 3 0.836653)
(-0.152132 3 0.836275)
(-0.154221 3 0.835892)
(-0.15631 3 0.835504)
(-0.158398 3 0.835111)
(-0.160484 3 0.834712)
(-0.16257 3 0.834309)
(-0.164655 3 0.8339)
(-0.166738 3 0.833486)
(-0.168821 3 0.833066)
(-0.170902 3 0.832642)
(-0.172983 3 0.832212)
(-0.175062 3 0.831777)
(-0.177141 3 0.831337)
(-0.179218 3 0.830892)
(-0.181294 3 0.830441)
(-0.183369 3 0.829985)
(-0.185443 3 0.829525)
(-0.187515 3 0.829059)
(-0.189587 3 0.828587)
(-0.191657 3 0.828111)
(-0.193726 3 0.827629)
(-0.195794 3 0.827142)
(-0.19786 3 0.826651)
(-0.199926 3 0.826154)
(-0.20199 3 0.825651)
(-0.204053 3 0.825144)
(-0.206115 3 0.824631)
(-0.208175 3 0.824114)
(-0.210234 3 0.823591)
(-0.212292 3 0.823063)
(-0.214348 3 0.82253)
(-0.216403 3 0.821991)
(-0.218457 3 0.821448)
(-0.220509 3 0.820899)
(-0.22256 3 0.820346)
(-0.22461 3 0.819787)
(-0.226658 3 0.819223)
(-0.228705 3 0.818654)
(-0.23075 3 0.81808)
(-0.232794 3 0.8175)
(-0.234836 3 0.816916)
(-0.236877 3 0.816327)
(-0.238917 3 0.815732)
(-0.240955 3 0.815132)
(-0.242991 3 0.814528)
(-0.245026 3 0.813918)
(-0.24706 3 0.813303)
(-0.249092 3 0.812683)
(-0.251122 3 0.812058)
(-0.253151 3 0.811428)
(-0.255178 3 0.810792)
(-0.257203 3 0.810152)
(-0.259227 3 0.809507)
(-0.26125 3 0.808856)
(-0.26327 3 0.808201)
(-0.26529 3 0.80754)
(-0.267307 3 0.806875)
(-0.269323 3 0.806204)
(-0.271337 3 0.805529)
(-0.273349 3 0.804848)
(-0.27536 3 0.804162)
(-0.277369 3 0.803472)
(-0.279376 3 0.802776)
(-0.281382 3 0.802075)
(-0.283385 3 0.801369)
(-0.285387 3 0.800659)
(-0.287387 3 0.799943)
(-0.289386 3 0.799222)
(-0.291382 3 0.798496)
(-0.293377 3 0.797765)
(-0.29537 3 0.79703)
(-0.297361 3 0.796289)
(-0.29935 3 0.795543)
(-0.301338 3 0.794793)
(-0.303323 3 0.794037)
(-0.305307 3 0.793277)
(-0.307288 3 0.792511)
(-0.309268 3 0.791741)
(-0.311246 3 0.790965)
(-0.313222 3 0.790185)
(-0.315196 3 0.7894)
(-0.317168 3 0.788609)
(-0.319138 3 0.787814)
(-0.321106 3 0.787014)
(-0.323072 3 0.786209)
(-0.325036 3 0.785399)
(-0.326997 3 0.784584)
(-0.328957 3 0.783765)
(-0.330915 3 0.78294)
(-0.332871 3 0.782111)
(-0.334825 3 0.781276)
(-0.336776 3 0.780437)
(-0.338726 3 0.779593)
(-0.340673 3 0.778744)
(-0.342618 3 0.77789)
(-0.344561 3 0.777031)
(-0.346502 3 0.776168)
(-0.348441 3 0.775299)
(-0.350378 3 0.774426)
(-0.352312 3 0.773548)
(-0.354244 3 0.772665)
(-0.356174 3 0.771777)
(-0.358102 3 0.770885)
(-0.360028 3 0.769987)
(-0.361951 3 0.769085)
(-0.363872 3 0.768178)
(-0.365791 3 0.767266)
(-0.367707 3 0.766349)
(-0.369621 3 0.765428)
(-0.371533 3 0.764502)
(-0.373443 3 0.763571)
(-0.37535 3 0.762635)
(-0.377255 3 0.761695)
(-0.379157 3 0.76075)
(-0.381057 3 0.759799)
(-0.382955 3 0.758845)
(-0.384851 3 0.757885)
(-0.386743 3 0.756921)
(-0.388634 3 0.755952)
(-0.390522 3 0.754978)
(-0.392408 3 0.754)
(-0.394291 3 0.753017)
(-0.396172 3 0.752029)
(-0.39805 3 0.751037)
(-0.399926 3 0.75004)
(-0.401799 3 0.749038)
(-0.40367 3 0.748031)
(-0.405538 3 0.74702)
(-0.407404 3 0.746004)
(-0.409267 3 0.744983)
(-0.411128 3 0.743958)
(-0.412986 3 0.742928)
(-0.414841 3 0.741894)
(-0.416694 3 0.740855)
(-0.418545 3 0.739811)
(-0.420392 3 0.738763)
(-0.422237 3 0.73771)
(-0.42408 3 0.736652)
(-0.42592 3 0.73559)
(-0.427757 3 0.734523)
(-0.429591 3 0.733452)
(-0.431423 3 0.732376)
(-0.433252 3 0.731295)
(-0.435078 3 0.73021)
(-0.436902 3 0.72912)
(-0.438723 3 0.728026)
(-0.440541 3 0.726928)
(-0.442356 3 0.725824)
(-0.444169 3 0.724716)
(-0.445979 3 0.723604)
(-0.447786 3 0.722487)
(-0.44959 3 0.721366)
(-0.451392 3 0.72024)
(-0.453191 3 0.719109)
(-0.454986 3 0.717974)
(-0.456779 3 0.716835)
(-0.458569 3 0.715691)
(-0.460357 3 0.714543)
(-0.462141 3 0.71339)
(-0.463923 3 0.712233)
(-0.465701 3 0.711071)
(-0.467477 3 0.709905)
(-0.46925 3 0.708735)
(-0.47102 3 0.70756)
(-0.472786 3 0.70638)
(-0.47455 3 0.705196)
(-0.476312 3 0.704008)
(-0.47807 3 0.702815)
(-0.479825 3 0.701618)
(-0.481577 3 0.700417)
(-0.483326 3 0.699211)
(-0.485072 3 0.698001)
(-0.486815 3 0.696787)
(-0.488555 3 0.695568)
(-0.490292 3 0.694345)
(-0.492025 3 0.693117)
(-0.493756 3 0.691885)
(-0.495484 3 0.690649)
(-0.497208 3 0.689408)
(-0.49893 3 0.688164)
(-0.500648 3 0.686915)
(-0.502363 3 0.685661)
(-0.504075 3 0.684403)
(-0.505784 3 0.683141)
(-0.50749 3 0.681875)
(-0.509193 3 0.680605)
(-0.510892 3 0.67933)
(-0.512588 3 0.678051)
(-0.514281 3 0.676768)
(-0.515971 3 0.67548)
(-0.517658 3 0.674189)
(-0.519341 3 0.672893)
(-0.521021 3 0.671593)
(-0.522698 3 0.670288)
(-0.524372 3 0.66898)
(-0.526042 3 0.667667)
(-0.527709 3 0.66635)
(-0.529373 3 0.66503)
(-0.531033 3 0.663704)
(-0.532691 3 0.662375)
(-0.534344 3 0.661042)
(-0.535995 3 0.659704)
(-0.537642 3 0.658363)
(-0.539286 3 0.657017)
(-0.540926 3 0.655667)
(-0.542563 3 0.654313)
(-0.544197 3 0.652955)
(-0.545827 3 0.651593)
(-0.547454 3 0.650226)
(-0.549077 3 0.648856)
(-0.550697 3 0.647482)
(-0.552314 3 0.646104)
(-0.553927 3 0.644721)
(-0.555536 3 0.643335)
(-0.557142 3 0.641944)
(-0.558745 3 0.64055)
(-0.560344 3 0.639151)
(-0.56194 3 0.637749)
(-0.563532 3 0.636343)
(-0.565121 3 0.634932)
(-0.566706 3 0.633518)
(-0.568287 3 0.632099)
(-0.569865 3 0.630677)
(-0.57144 3 0.629251)
(-0.573011 3 0.627821)
(-0.574578 3 0.626387)
(-0.576142 3 0.624949)
(-0.577702 3 0.623507)
(-0.579258 3 0.622061)
(-0.580811 3 0.620611)
(-0.58236 3 0.619158)
(-0.583906 3 0.6177)
(-0.585448 3 0.616239)
(-0.586986 3 0.614774)
(-0.588521 3 0.613305)
(-0.590052 3 0.611832)
(-0.591579 3 0.610356)
(-0.593103 3 0.608875)
(-0.594623 3 0.607391)
(-0.596139 3 0.605903)
(-0.597651 3 0.604411)
(-0.59916 3 0.602916)
(-0.600665 3 0.601416)
(-0.602166 3 0.599913)
(-0.603664 3 0.598406)
(-0.605157 3 0.596896)
(-0.606647 3 0.595381)
(-0.608133 3 0.593863)
(-0.609616 3 0.592341)
(-0.611094 3 0.590816)
(-0.612569 3 0.589287)
(-0.61404 3 0.587754)
(-0.615507 3 0.586218)
(-0.61697 3 0.584678)
(-0.61843 3 0.583134)
(-0.619885 3 0.581586)
(-0.621337 3 0.580035)
(-0.622784 3 0.57848)
(-0.624228 3 0.576922)
(-0.625668 3 0.57536)
(-0.627104 3 0.573795)
(-0.628536 3 0.572226)
(-0.629964 3 0.570653)
(-0.631389 3 0.569077)
(-0.632809 3 0.567497)
(-0.634225 3 0.565914)
(-0.635638 3 0.564327)
(-0.637046 3 0.562736)
(-0.638451 3 0.561142)
(-0.639851 3 0.559545)
(-0.641248 3 0.557944)
(-0.64264 3 0.55634)
(-0.644028 3 0.554732)
(-0.645413 3 0.55312)
(-0.646793 3 0.551506)
(-0.64817 3 0.549887)
(-0.649542 3 0.548266)
(-0.65091 3 0.546641)
(-0.652274 3 0.545012)
(-0.653634 3 0.54338)
(-0.65499 3 0.541745)
(-0.656342 3 0.540106)
(-0.65769 3 0.538464)
(-0.659034 3 0.536819)
(-0.660374 3 0.53517)
(-0.661709 3 0.533518)
(-0.66304 3 0.531862)
(-0.664367 3 0.530204)
(-0.66569 3 0.528542)
(-0.667009 3 0.526876)
(-0.668324 3 0.525207)
(-0.669635 3 0.523535)
(-0.670941 3 0.52186)
(-0.672243 3 0.520182)
(-0.673541 3 0.5185)
(-0.674835 3 0.516815)
(-0.676125 3 0.515127)
(-0.67741 3 0.513435)
(-0.678691 3 0.511741)
(-0.679968 3 0.510043)
(-0.68124 3 0.508342)
(-0.682509 3 0.506638)
(-0.683773 3 0.50493)
(-0.685033 3 0.50322)
(-0.686288 3 0.501506)
(-0.68754 3 0.499789)
(-0.688787 3 0.498069)
(-0.690029 3 0.496346)
(-0.691267 3 0.49462)
(-0.692502 3 0.492891)
(-0.693731 3 0.491159)
(-0.694957 3 0.489423)
(-0.696178 3 0.487685)
(-0.697394 3 0.485943)
(-0.698607 3 0.484199)
(-0.699815 3 0.482451)
(-0.701018 3 0.480701)
(-0.702218 3 0.478947)
(-0.703412 3 0.477191)
(-0.704603 3 0.475431)
(-0.705789 3 0.473669)
(-0.70697 3 0.471904)
(-0.708148 3 0.470135)
(-0.70932 3 0.468364)
(-0.710489 3 0.46659)
(-0.711653 3 0.464812)
(-0.712812 3 0.463032)
(-0.713967 3 0.461249)
(-0.715118 3 0.459464)
(-0.716264 3 0.457675)
(-0.717405 3 0.455883)
(-0.718543 3 0.454089)
(-0.719675 3 0.452291)
(-0.720803 3 0.450491)
(-0.721927 3 0.448689)
(-0.723046 3 0.446883)
(-0.724161 3 0.445074)
(-0.725271 3 0.443263)
(-0.726376 3 0.441449)
(-0.727477 3 0.439632)
(-0.728574 3 0.437813)
(-0.729666 3 0.43599)
(-0.730753 3 0.434165)
(-0.731836 3 0.432338)
(-0.732914 3 0.430507)
(-0.733988 3 0.428674)
(-0.735057 3 0.426838)
(-0.736122 3 0.425)
(-0.737181 3 0.423159)
(-0.738237 3 0.421315)
(-0.739287 3 0.419469)
(-0.740333 3 0.41762)
(-0.741375 3 0.415768)
(-0.742412 3 0.413914)
(-0.743444 3 0.412057)
(-0.744471 3 0.410198)
(-0.745494 3 0.408336)
(-0.746512 3 0.406471)
(-0.747526 3 0.404604)
(-0.748535 3 0.402735)
(-0.749539 3 0.400863)
(-0.750539 3 0.398988)
(-0.751534 3 0.397111)
(-0.752524 3 0.395232)
(-0.753509 3 0.39335)
(-0.75449 3 0.391465)
(-0.755466 3 0.389578)
(-0.756437 3 0.387689)
(-0.757404 3 0.385797)
(-0.758366 3 0.383903)
(-0.759323 3 0.382007)
(-0.760275 3 0.380108)
(-0.761223 3 0.378206)
(-0.762166 3 0.376303)
(-0.763104 3 0.374397)
(-0.764037 3 0.372488)
(-0.764966 3 0.370578)
(-0.765889 3 0.368665)
(-0.766808 3 0.366749)
(-0.767723 3 0.364832)
(-0.768632 3 0.362912)
(-0.769537 3 0.36099)
(-0.770436 3 0.359065)
(-0.771331 3 0.357138)
(-0.772222 3 0.355209)
(-0.773107 3 0.353278)
(-0.773987 3 0.351345)
(-0.774863 3 0.34941)
(-0.775734 3 0.347472)
(-0.7766 3 0.345532)
(-0.777461 3 0.34359)
(-0.778318 3 0.341646)
(-0.779169 3 0.3397)
(-0.780016 3 0.337751)
(-0.780857 3 0.335801)
(-0.781694 3 0.333848)
(-0.782526 3 0.331893)
(-0.783353 3 0.329937)
(-0.784175 3 0.327978)
(-0.784992 3 0.326017)
(-0.785805 3 0.324054)
(-0.786612 3 0.322089)
(-0.787415 3 0.320122)
(-0.788212 3 0.318153)
(-0.789005 3 0.316182)
(-0.789793 3 0.314209)
(-0.790576 3 0.312234)
(-0.791354 3 0.310257)
(-0.792126 3 0.308279)
(-0.792894 3 0.306298)
(-0.793657 3 0.304315)
(-0.794416 3 0.302331)
(-0.795169 3 0.300344)
(-0.795917 3 0.298356)
(-0.79666 3 0.296366)
(-0.797398 3 0.294374)
(-0.798132 3 0.29238)
(-0.79886 3 0.290384)
(-0.799583 3 0.288387)
(-0.800301 3 0.286388)
(-0.801014 3 0.284387)
(-0.801723 3 0.282384)
(-0.802426 3 0.280379)
(-0.803124 3 0.278373)
(-0.803818 3 0.276365)
(-0.804506 3 0.274355)
(-0.805189 3 0.272343)
(-0.805867 3 0.27033)
(-0.80654 3 0.268315)
(-0.807208 3 0.266299)
(-0.807871 3 0.26428)
(-0.808529 3 0.26226)
(-0.809182 3 0.260239)
(-0.80983 3 0.258216)
(-0.810473 3 0.256191)
(-0.811111 3 0.254164)
(-0.811743 3 0.252136)
(-0.812371 3 0.250107)
(-0.812994 3 0.248076)
(-0.813611 3 0.246043)
(-0.814223 3 0.244009)
(-0.814831 3 0.241973)
(-0.815433 3 0.239936)
(-0.81603 3 0.237897)
(-0.816622 3 0.235857)
(-0.817209 3 0.233815)
(-0.817791 3 0.231772)
(-0.818367 3 0.229728)
(-0.818939 3 0.227681)
(-0.819506 3 0.225634)
(-0.820067 3 0.223585)
(-0.820623 3 0.221535)
(-0.821174 3 0.219483)
(-0.82172 3 0.21743)
(-0.822261 3 0.215376)
(-0.822797 3 0.21332)
(-0.823327 3 0.211263)
(-0.823853 3 0.209205)
(-0.824373 3 0.207145)
(-0.824888 3 0.205084)
(-0.825398 3 0.203022)
(-0.825903 3 0.200958)
(-0.826403 3 0.198893)
(-0.826897 3 0.196827)
(-0.827387 3 0.19476)
(-0.827871 3 0.192692)
(-0.82835 3 0.190622)
(-0.828824 3 0.188551)
(-0.829292 3 0.186479)
(-0.829756 3 0.184406)
(-0.830214 3 0.182331)
(-0.830667 3 0.180256)
(-0.831115 3 0.178179)
(-0.831558 3 0.176102)
(-0.831995 3 0.174023)
(-0.832428 3 0.171943)
(-0.832855 3 0.169862)
(-0.833277 3 0.16778)
(-0.833693 3 0.165697)
(-0.834105 3 0.163612)
(-0.834511 3 0.161527)
(-0.834912 3 0.159441)
(-0.835308 3 0.157354)
(-0.835699 3 0.155266)
(-0.836084 3 0.153177)
(-0.836465 3 0.151086)
(-0.836839 3 0.148996)
(-0.837209 3 0.146903)
(-0.837574 3 0.144811)
(-0.837933 3 0.142717)
(-0.838287 3 0.140622)
(-0.838636 3 0.138527)
(-0.83898 3 0.13643)
(-0.839318 3 0.134333)
(-0.839651 3 0.132235)
(-0.839979 3 0.130136)
(-0.840302 3 0.128036)
(-0.840619 3 0.125936)
(-0.840931 3 0.123834)
(-0.841238 3 0.121732)
(-0.84154 3 0.119629)
(-0.841836 3 0.117526)
(-0.842127 3 0.115421)
(-0.842413 3 0.113316)
(-0.842693 3 0.111211)
(-0.842969 3 0.109104)
(-0.843239 3 0.106997)
(-0.843504 3 0.104889)
(-0.843763 3 0.102781)
(-0.844017 3 0.100671)
(-0.844266 3 0.0985617)
(-0.84451 3 0.0964514)
(-0.844748 3 0.0943404)
(-0.844982 3 0.0922289)
(-0.845209 3 0.0901167)
(-0.845432 3 0.0880041)
(-0.845649 3 0.0858908)
(-0.845861 3 0.083777)
(-0.846068 3 0.0816627)
(-0.846269 3 0.0795479)
(-0.846466 3 0.0774326)
(-0.846657 3 0.0753168)
(-0.846842 3 0.0732006)
(-0.847022 3 0.0710838)
(-0.847197 3 0.0689667)
(-0.847367 3 0.0668491)
(-0.847532 3 0.0647311)
(-0.847691 3 0.0626126)
(-0.847845 3 0.0604938)
(-0.847993 3 0.0583746)
(-0.848136 3 0.0562551)
(-0.848274 3 0.0541352)
(-0.848407 3 0.052015)
(-0.848534 3 0.0498944)
(-0.848656 3 0.0477735)
(-0.848773 3 0.0456523)
(-0.848885 3 0.0435309)
(-0.848991 3 0.0414091)
(-0.849092 3 0.0392871)
(-0.849187 3 0.0371649)
(-0.849277 3 0.0350424)
(-0.849362 3 0.0329197)
(-0.849442 3 0.0307969)
(-0.849516 3 0.0286738)
(-0.849585 3 0.0265505)
(-0.849649 3 0.0244271)
(-0.849707 3 0.0223035)
(-0.84976 3 0.0201798)
(-0.849808 3 0.0180559)
(-0.849851 3 0.015932)
(-0.849888 3 0.0138079)
(-0.84992 3 0.0116838)
(-0.849946 3 0.00955954)
(-0.849967 3 0.00743526)
(-0.849983 3 0.00531093)
(-0.849994 3 0.00318657)
(-0.849999 3 0.00106219)
(-0.849999 3 -0.00106219)
(-0.849994 3 -0.00318657)
(-0.849983 3 -0.00531093)
(-0.849967 3 -0.00743526)
(-0.849946 3 -0.00955954)
(-0.84992 3 -0.0116838)
(-0.849888 3 -0.0138079)
(-0.849851 3 -0.015932)
(-0.849808 3 -0.0180559)
(-0.84976 3 -0.0201798)
(-0.849707 3 -0.0223035)
(-0.849649 3 -0.0244271)
(-0.849585 3 -0.0265505)
(-0.849516 3 -0.0286738)
(-0.849442 3 -0.0307969)
(-0.849362 3 -0.0329197)
(-0.849277 3 -0.0350424)
(-0.849187 3 -0.0371649)
(-0.849092 3 -0.0392871)
(-0.848991 3 -0.0414091)
(-0.848885 3 -0.0435309)
(-0.848773 3 -0.0456523)
(-0.848656 3 -0.0477735)
(-0.848534 3 -0.0498944)
(-0.848407 3 -0.052015)
(-0.848274 3 -0.0541352)
(-0.848136 3 -0.0562551)
(-0.847993 3 -0.0583746)
(-0.847845 3 -0.0604938)
(-0.847691 3 -0.0626126)
(-0.847532 3 -0.0647311)
(-0.847367 3 -0.0668491)
(-0.847197 3 -0.0689667)
(-0.847022 3 -0.0710838)
(-0.846842 3 -0.0732006)
(-0.846657 3 -0.0753168)
(-0.846466 3 -0.0774326)
(-0.846269 3 -0.0795479)
(-0.846068 3 -0.0816627)
(-0.845861 3 -0.083777)
(-0.845649 3 -0.0858908)
(-0.845432 3 -0.0880041)
(-0.845209 3 -0.0901167)
(-0.844982 3 -0.0922289)
(-0.844748 3 -0.0943404)
(-0.84451 3 -0.0964514)
(-0.844266 3 -0.0985617)
(-0.844017 3 -0.100671)
(-0.843763 3 -0.102781)
(-0.843504 3 -0.104889)
(-0.843239 3 -0.106997)
(-0.842969 3 -0.109104)
(-0.842693 3 -0.111211)
(-0.842413 3 -0.113316)
(-0.842127 3 -0.115421)
(-0.841836 3 -0.117526)
(-0.84154 3 -0.119629)
(-0.841238 3 -0.121732)
(-0.840931 3 -0.123834)
(-0.840619 3 -0.125936)
(-0.840302 3 -0.128036)
(-0.839979 3 -0.130136)
(-0.839651 3 -0.132235)
(-0.839318 3 -0.134333)
(-0.83898 3 -0.13643)
(-0.838636 3 -0.138527)
(-0.838287 3 -0.140622)
(-0.837933 3 -0.142717)
(-0.837574 3 -0.144811)
(-0.837209 3 -0.146903)
(-0.836839 3 -0.148996)
(-0.836465 3 -0.151086)
(-0.836084 3 -0.153177)
(-0.835699 3 -0.155266)
(-0.835308 3 -0.157354)
(-0.834912 3 -0.159441)
(-0.834511 3 -0.161527)
(-0.834105 3 -0.163612)
(-0.833693 3 -0.165697)
(-0.833277 3 -0.16778)
(-0.832855 3 -0.169862)
(-0.832428 3 -0.171943)
(-0.831995 3 -0.174023)
(-0.831558 3 -0.176102)
(-0.831115 3 -0.178179)
(-0.830667 3 -0.180256)
(-0.830214 3 -0.182331)
(-0.829756 3 -0.184406)
(-0.829292 3 -0.186479)
(-0.828824 3 -0.188551)
(-0.82835 3 -0.190622)
(-0.827871 3 -0.192692)
(-0.827387 3 -0.19476)
(-0.826897 3 -0.196827)
(-0.826403 3 -0.198893)
(-0.825903 3 -0.200958)
(-0.825398 3 -0.203022)
(-0.824888 3 -0.205084)
(-0.824373 3 -0.207145)
(-0.823853 3 -0.209205)
(-0.823327 3 -0.211263)
(-0.822797 3 -0.21332)
(-0.822261 3 -0.215376)
(-0.82172 3 -0.21743)
(-0.821174 3 -0.219483)
(-0.820623 3 -0.221535)
(-0.820067 3 -0.223585)
(-0.819506 3 -0.225634)
(-0.818939 3 -0.227681)
(-0.818367 3 -0.229728)
(-0.817791 3 -0.231772)
(-0.817209 3 -0.233815)
(-0.816622 3 -0.235857)
(-0.81603 3 -0.237897)
(-0.815433 3 -0.239936)
(-0.814831 3 -0.241973)
(-0.814223 3 -0.244009)
(-0.813611 3 -0.246043)
(-0.812994 3 -0.248076)
(-0.812371 3 -0.250107)
(-0.811743 3 -0.252136)
(-0.811111 3 -0.254164)
(-0.810473 3 -0.256191)
(-0.80983 3 -0.258216)
(-0.809182 3 -0.260239)
(-0.808529 3 -0.26226)
(-0.807871 3 -0.26428)
(-0.807208 3 -0.266299)
(-0.80654 3 -0.268315)
(-0.805867 3 -0.27033)
(-0.805189 3 -0.272343)
(-0.804506 3 -0.274355)
(-0.803818 3 -0.276365)
(-0.803124 3 -0.278373)
(-0.802426 3 -0.280379)
(-0.801723 3 -0.282384)
(-0.801014 3 -0.284387)
(-0.800301 3 -0.286388)
(-0.799583 3 -0.288387)
(-0.79886 3 -0.290384)
(-0.798132 3 -0.29238)
(-0.797398 3 -0.294374)
(-0.79666 3 -0.296366)
(-0.795917 3 -0.298356)
(-0.795169 3 -0.300344)
(-0.794416 3 -0.302331)
(-0.793657 3 -0.304315)
(-0.792894 3 -0.306298)
(-0.792126 3 -0.308279)
(-0.791354 3 -0.310257)
(-0.790576 3 -0.312234)
(-0.789793 3 -0.314209)
(-0.789005 3 -0.316182)
(-0.788212 3 -0.318153)
(-0.787415 3 -0.320122)
(-0.786612 3 -0.322089)
(-0.785805 3 -0.324054)
(-0.784992 3 -0.326017)
(-0.784175 3 -0.327978)
(-0.783353 3 -0.329937)
(-0.782526 3 -0.331893)
(-0.781694 3 -0.333848)
(-0.780857 3 -0.335801)
(-0.780016 3 -0.337751)
(-0.779169 3 -0.3397)
(-0.778318 3 -0.341646)
(-0.777461 3 -0.34359)
(-0.7766 3 -0.345532)
(-0.775734 3 -0.347472)
(-0.774863 3 -0.34941)
(-0.773987 3 -0.351345)
(-0.773107 3 -0.353278)
(-0.772222 3 -0.355209)
(-0.771331 3 -0.357138)
(-0.770436 3 -0.359065)
(-0.769537 3 -0.36099)
(-0.768632 3 -0.362912)
(-0.767723 3 -0.364832)
(-0.766808 3 -0.366749)
(-0.765889 3 -0.368665)
(-0.764966 3 -0.370578)
(-0.764037 3 -0.372488)
(-0.763104 3 -0.374397)
(-0.762166 3 -0.376303)
(-0.761223 3 -0.378206)
(-0.760275 3 -0.380108)
(-0.759323 3 -0.382007)
(-0.758366 3 -0.383903)
(-0.757404 3 -0.385797)
(-0.756437 3 -0.387689)
(-0.755466 3 -0.389578)
(-0.75449 3 -0.391465)
(-0.753509 3 -0.39335)
(-0.752524 3 -0.395232)
(-0.751534 3 -0.397111)
(-0.750539 3 -0.398988)
(-0.749539 3 -0.400863)
(-0.748535 3 -0.402735)
(-0.747526 3 -0.404604)
(-0.746512 3 -0.406471)
(-0.745494 3 -0.408336)
(-0.744471 3 -0.410198)
(-0.743444 3 -0.412057)
(-0.742412 3 -0.413914)
(-0.741375 3 -0.415768)
(-0.740333 3 -0.41762)
(-0.739287 3 -0.419469)
(-0.738237 3 -0.421315)
(-0.737181 3 -0.423159)
(-0.736122 3 -0.425)
(-0.735057 3 -0.426838)
(-0.733988 3 -0.428674)
(-0.732914 3 -0.430507)
(-0.731836 3 -0.432338)
(-0.730753 3 -0.434165)
(-0.729666 3 -0.43599)
(-0.728574 3 -0.437813)
(-0.727477 3 -0.439632)
(-0.726376 3 -0.441449)
(-0.725271 3 -0.443263)
(-0.724161 3 -0.445074)
(-0.723046 3 -0.446883)
(-0.721927 3 -0.448689)
(-0.720803 3 -0.450491)
(-0.719675 3 -0.452291)
(-0.718543 3 -0.454089)
(-0.717405 3 -0.455883)
(-0.716264 3 -0.457675)
(-0.715118 3 -0.459464)
(-0.713967 3 -0.461249)
(-0.712812 3 -0.463032)
(-0.711653 3 -0.464812)
(-0.710489 3 -0.46659)
(-0.70932 3 -0.468364)
(-0.708148 3 -0.470135)
(-0.70697 3 -0.471904)
(-0.705789 3 -0.473669)
(-0.704603 3 -0.475431)
(-0.703412 3 -0.477191)
(-0.702218 3 -0.478947)
(-0.701018 3 -0.480701)
(-0.699815 3 -0.482451)
(-0.698607 3 -0.484199)
(-0.697394 3 -0.485943)
(-0.696178 3 -0.487685)
(-0.694957 3 -0.489423)
(-0.693731 3 -0.491159)
(-0.692502 3 -0.492891)
(-0.691267 3 -0.49462)
(-0.690029 3 -0.496346)
(-0.688787 3 -0.498069)
(-0.68754 3 -0.499789)
(-0.686288 3 -0.501506)
(-0.685033 3 -0.50322)
(-0.683773 3 -0.50493)
(-0.682509 3 -0.506638)
(-0.68124 3 -0.508342)
(-0.679968 3 -0.510043)
(-0.678691 3 -0.511741)
(-0.67741 3 -0.513435)
(-0.676125 3 -0.515127)
(-0.674835 3 -0.516815)
(-0.673541 3 -0.5185)
(-0.672243 3 -0.520182)
(-0.670941 3 -0.52186)
(-0.669635 3 -0.523535)
(-0.668324 3 -0.525207)
(-0.667009 3 -0.526876)
(-0.66569 3 -0.528542)
(-0.664367 3 -0.530204)
(-0.66304 3 -0.531862)
(-0.661709 3 -0.533518)
(-0.660374 3 -0.53517)
(-0.659034 3 -0.536819)
(-0.65769 3 -0.538464)
(-0.656342 3 -0.540106)
(-0.65499 3 -0.541745)
(-0.653634 3 -0.54338)
(-0.652274 3 -0.545012)
(-0.65091 3 -0.546641)
(-0.649542 3 -0.548266)
(-0.64817 3 -0.549887)
(-0.646793 3 -0.551506)
(-0.645413 3 -0.55312)
(-0.644028 3 -0.554732)
(-0.64264 3 -0.55634)
(-0.641248 3 -0.557944)
(-0.639851 3 -0.559545)
(-0.638451 3 -0.561142)
(-0.637046 3 -0.562736)
(-0.635638 3 -0.564327)
(-0.634225 3 -0.565914)
(-0.632809 3 -0.567497)
(-0.631389 3 -0.569077)
(-0.629964 3 -0.570653)
(-0.628536 3 -0.572226)
(-0.627104 3 -0.573795)
(-0.625668 3 -0.57536)
(-0.624228 3 -0.576922)
(-0.622784 3 -0.57848)
(-0.621337 3 -0.580035)
(-0.619885 3 -0.581586)
(-0.61843 3 -0.583134)
(-0.61697 3 -0.584678)
(-0.615507 3 -0.586218)
(-0.61404 3 -0.587754)
(-0.612569 3 -0.589287)
(-0.611094 3 -0.590816)
(-0.609616 3 -0.592341)
(-0.608133 3 -0.593863)
(-0.606647 3 -0.595381)
(-0.605157 3 -0.596896)
(-0.603664 3 -0.598406)
(-0.602166 3 -0.599913)
(-0.600665 3 -0.601416)
(-0.59916 3 -0.602916)
(-0.597651 3 -0.604411)
(-0.596139 3 -0.605903)
(-0.594623 3 -0.607391)
(-0.593103 3 -0.608875)
(-0.591579 3 -0.610356)
(-0.590052 3 -0.611832)
(-0.588521 3 -0.613305)
(-0.586986 3 -0.614774)
(-0.585448 3 -0.616239)
(-0.583906 3 -0.6177)
(-0.58236 3 -0.619158)
(-0.580811 3 -0.620611)
(-0.579258 3 -0.622061)
(-0.577702 3 -0.623507)
(-0.576142 3 -0.624949)
(-0.574578 3 -0.626387)
(-0.573011 3 -0.627821)
(-0.57144 3 -0.629251)
(-0.569865 3 -0.630677)
(-0.568287 3 -0.632099)
(-0.566706 3 -0.633518)
(-0.565121 3 -0.634932)
(-0.563532 3 -0.636343)
(-0.56194 3 -0.637749)
(-0.560344 3 -0.639151)
(-0.558745 3 -0.64055)
(-0.557142 3 -0.641944)
(-0.555536 3 -0.643335)
(-0.553927 3 -0.644721)
(-0.552314 3 -0.646104)
(-0.550697 3 -0.647482)
(-0.549077 3 -0.648856)
(-0.547454 3 -0.650226)
(-0.545827 3 -0.651593)
(-0.544197 3 -0.652955)
(-0.542563 3 -0.654313)
(-0.540926 3 -0.655667)
(-0.539286 3 -0.657017)
(-0.537642 3 -0.658363)
(-0.535995 3 -0.659704)
(-0.534344 3 -0.661042)
(-0.532691 3 -0.662375)
(-0.531033 3 -0.663704)
(-0.529373 3 -0.66503)
(-0.527709 3 -0.66635)
(-0.526042 3 -0.667667)
(-0.524372 3 -0.66898)
(-0.522698 3 -0.670288)
(-0.521021 3 -0.671593)
(-0.519341 3 -0.672893)
(-0.517658 3 -0.674189)
(-0.515971 3 -0.67548)
(-0.514281 3 -0.676768)
(-0.512588 3 -0.678051)
(-0.510892 3 -0.67933)
(-0.509193 3 -0.680605)
(-0.50749 3 -0.681875)
(-0.505784 3 -0.683141)
(-0.504075 3 -0.684403)
(-0.502363 3 -0.685661)
(-0.500648 3 -0.686915)
(-0.49893 3 -0.688164)
(-0.497208 3 -0.689408)
(-0.495484 3 -0.690649)
(-0.493756 3 -0.691885)
(-0.492025 3 -0.693117)
(-0.490292 3 -0.694345)
(-0.488555 3 -0.695568)
(-0.486815 3 -0.696787)
(-0.485072 3 -0.698001)
(-0.483326 3 -0.699211)
(-0.481577 3 -0.700417)
(-0.479825 3 -0.701618)
(-0.47807 3 -0.702815)
(-0.476312 3 -0.704008)
(-0.47455 3 -0.705196)
(-0.472786 3 -0.70638)
(-0.47102 3 -0.70756)
(-0.46925 3 -0.708735)
(-0.467477 3 -0.709905)
(-0.465701 3 -0.711071)
(-0.463923 3 -0.712233)
(-0.462141 3 -0.71339)
(-0.460357 3 -0.714543)
(-0.458569 3 -0.715691)
(-0.456779 3 -0.716835)
(-0.454986 3 -0.717974)
(-0.453191 3 -0.719109)
(-0.451392 3 -0.72024)
(-0.44959 3 -0.721366)
(-0.447786 3 -0.722487)
(-0.445979 3 -0.723604)
(-0.444169 3 -0.724716)
(-0.442356 3 -0.725824)
(-0.440541 3 -0.726928)
(-0.438723 3 -0.728026)
(-0.436902 3 -0.72912)
(-0.435078 3 -0.73021)
(-0.433252 3 -0.731295)
(-0.431423 3 -0.732376)
(-0.429591 3 -0.733452)
(-0.427757 3 -0.734523)
(-0.42592 3 -0.73559)
(-0.42408 3 -0.736652)
(-0.422237 3 -0.73771)
(-0.420392 3 -0.738763)
(-0.418545 3 -0.739811)
(-0.416694 3 -0.740855)
(-0.414841 3 -0.741894)
(-0.412986 3 -0.742928)
(-0.411128 3 -0.743958)
(-0.409267 3 -0.744983)
(-0.407404 3 -0.746004)
(-0.405538 3 -0.74702)
(-0.40367 3 -0.748031)
(-0.401799 3 -0.749038)
(-0.399926 3 -0.75004)
(-0.39805 3 -0.751037)
(-0.396172 3 -0.752029)
(-0.394291 3 -0.753017)
(-0.392408 3 -0.754)
(-0.390522 3 -0.754978)
(-0.388634 3 -0.755952)
(-0.386743 3 -0.756921)
(-0.384851 3 -0.757885)
(-0.382955 3 -0.758845)
(-0.381057 3 -0.759799)
(-0.379157 3 -0.76075)
(-0.377255 3 -0.761695)
(-0.37535 3 -0.762635)
(-0.373443 3 -0.763571)
(-0.371533 3 -0.764502)
(-0.369621 3 -0.765428)
(-0.367707 3 -0.766349)
(-0.365791 3 -0.767266)
(-0.363872 3 -0.768178)
(-0.361951 3 -0.769085)
(-0.360028 3 -0.769987)
(-0.358102 3 -0.770885)
(-0.356174 3 -0.771777)
(-0.354244 3 -0.772665)
(-0.352312 3 -0.773548)
(-0.350378 3 -0.774426)
(-0.348441 3 -0.775299)
(-0.346502 3 -0.776168)
(-0.344561 3 -0.777031)
(-0.342618 3 -0.77789)
(-0.340673 3 -0.778744)
(-0.338726 3 -0.779593)
(-0.336776 3 -0.780437)
(-0.334825 3 -0.781276)
(-0.332871 3 -0.782111)
(-0.330915 3 -0.78294)
(-0.328957 3 -0.783765)
(-0.326997 3 -0.784584)
(-0.325036 3 -0.785399)
(-0.323072 3 -0.786209)
(-0.321106 3 -0.787014)
(-0.319138 3 -0.787814)
(-0.317168 3 -0.788609)
(-0.315196 3 -0.7894)
(-0.313222 3 -0.790185)
(-0.311246 3 -0.790965)
(-0.309268 3 -0.791741)
(-0.307288 3 -0.792511)
(-0.305307 3 -0.793277)
(-0.303323 3 -0.794037)
(-0.301338 3 -0.794793)
(-0.29935 3 -0.795543)
(-0.297361 3 -0.796289)
(-0.29537 3 -0.79703)
(-0.293377 3 -0.797765)
(-0.291382 3 -0.798496)
(-0.289386 3 -0.799222)
(-0.287387 3 -0.799943)
(-0.285387 3 -0.800659)
(-0.283385 3 -0.801369)
(-0.281382 3 -0.802075)
(-0.279376 3 -0.802776)
(-0.277369 3 -0.803472)
(-0.27536 3 -0.804162)
(-0.273349 3 -0.804848)
(-0.271337 3 -0.805529)
(-0.269323 3 -0.806204)
(-0.267307 3 -0.806875)
(-0.26529 3 -0.80754)
(-0.26327 3 -0.808201)
(-0.26125 3 -0.808856)
(-0.259227 3 -0.809507)
(-0.257203 3 -0.810152)
(-0.255178 3 -0.810792)
(-0.253151 3 -0.811428)
(-0.251122 3 -0.812058)
(-0.249092 3 -0.812683)
(-0.24706 3 -0.813303)
(-0.245026 3 -0.813918)
(-0.242991 3 -0.814528)
(-0.240955 3 -0.815132)
(-0.238917 3 -0.815732)
(-0.236877 3 -0.816327)
(-0.234836 3 -0.816916)
(-0.232794 3 -0.8175)
(-0.23075 3 -0.81808)
(-0.228705 3 -0.818654)
(-0.226658 3 -0.819223)
(-0.22461 3 -0.819787)
(-0.22256 3 -0.820346)
(-0.220509 3 -0.820899)
(-0.218457 3 -0.821448)
(-0.216403 3 -0.821991)
(-0.214348 3 -0.82253)
(-0.212292 3 -0.823063)
(-0.210234 3 -0.823591)
(-0.208175 3 -0.824114)
(-0.206115 3 -0.824631)
(-0.204053 3 -0.825144)
(-0.20199 3 -0.825651)
(-0.199926 3 -0.826154)
(-0.19786 3 -0.826651)
(-0.195794 3 -0.827142)
(-0.193726 3 -0.827629)
(-0.191657 3 -0.828111)
(-0.189587 3 -0.828587)
(-0.187515 3 -0.829059)
(-0.185443 3 -0.829525)
(-0.183369 3 -0.829985)
(-0.181294 3 -0.830441)
(-0.179218 3 -0.830892)
(-0.177141 3 -0.831337)
(-0.175062 3 -0.831777)
(-0.172983 3 -0.832212)
(-0.170902 3 -0.832642)
(-0.168821 3 -0.833066)
(-0.166738 3 -0.833486)
(-0.164655 3 -0.8339)
(-0.16257 3 -0.834309)
(-0.160484 3 -0.834712)
(-0.158398 3 -0.835111)
(-0.15631 3 -0.835504)
(-0.154221 3 -0.835892)
(-0.152132 3 -0.836275)
(-0.150041 3 -0.836653)
(-0.14795 3 -0.837025)
(-0.145857 3 -0.837392)
(-0.143764 3 -0.837754)
(-0.14167 3 -0.838111)
(-0.139574 3 -0.838462)
(-0.137479 3 -0.838808)
(-0.135382 3 -0.839149)
(-0.133284 3 -0.839485)
(-0.131186 3 -0.839816)
(-0.129086 3 -0.840141)
(-0.126986 3 -0.840461)
(-0.124885 3 -0.840776)
(-0.122783 3 -0.841085)
(-0.120681 3 -0.841389)
(-0.118578 3 -0.841688)
(-0.116474 3 -0.841982)
(-0.114369 3 -0.842271)
(-0.112264 3 -0.842554)
(-0.110157 3 -0.842832)
(-0.108051 3 -0.843104)
(-0.105943 3 -0.843372)
(-0.103835 3 -0.843634)
(-0.101726 3 -0.843891)
(-0.0996167 3 -0.844142)
(-0.0975066 3 -0.844389)
(-0.095396 3 -0.84463)
(-0.0932847 3 -0.844866)
(-0.0911729 3 -0.845096)
(-0.0890605 3 -0.845321)
(-0.0869475 3 -0.845541)
(-0.084834 3 -0.845756)
(-0.0827199 3 -0.845965)
(-0.0806054 3 -0.846169)
(-0.0784903 3 -0.846368)
(-0.0763748 3 -0.846562)
(-0.0742587 3 -0.84675)
(-0.0721422 3 -0.846933)
(-0.0700253 3 -0.847111)
(-0.0679079 3 -0.847283)
(-0.0657901 3 -0.84745)
(-0.0636719 3 -0.847612)
(-0.0615533 3 -0.847768)
(-0.0594343 3 -0.84792)
(-0.0573149 3 -0.848065)
(-0.0551952 3 -0.848206)
(-0.0530751 3 -0.848341)
(-0.0509547 3 -0.848471)
(-0.048834 3 -0.848596)
(-0.046713 3 -0.848715)
(-0.0445916 3 -0.84883)
(-0.04247 3 -0.848938)
(-0.0403482 3 -0.849042)
(-0.0382261 3 -0.84914)
(-0.0361037 3 -0.849233)
(-0.0339811 3 -0.84932)
(-0.0318583 3 -0.849403)
(-0.0297353 3 -0.84948)
(-0.0276122 3 -0.849551)
(-0.0254888 3 -0.849618)
(-0.0233653 3 -0.849679)
(-0.0212416 3 -0.849734)
(-0.0191179 3 -0.849785)
(-0.016994 3 -0.84983)
(-0.0148699 3 -0.84987)
(-0.0127458 3 -0.849904)
(-0.0106217 3 -0.849934)