/*--------------------------------*- C++ -*----------------------------------*\
  =========                 |
  \\      /  F ield         | OpenFOAM: The Open Source CFD Toolbox
   \\    /   O peration     | Website:  https://openfoam.org
    \\  /    A nd           | Version:  11
     \\/     M anipulation  |
\*---------------------------------------------------------------------------*/
FoamFile
{
    format      ascii;
    class       volScalarField;
    object      epsilonm;
}
// * * * * * * * * * * * * * * * * * * * * * * * * * * * * * * * * * * * * * //

dimensions      [0 2 -3 0 0 0 0];

internalField   uniform 2.160734485060097e-05;

boundaryField
{
    outlet
    {
        type            inletOutlet;
        phi             phim;
        inletValue      uniform 3.406685135464286e-17;
        value           uniform 3.406685135464286e-17;
    }

    sparger_upper
    {
        type            fixedValue;
        value           $internalField;
    }

    wall
    {
        type            epsilonmWallFunction;
        value           $internalField;
    }
}

// ************************************************************************* //
