/*--------------------------------*- C++ -*----------------------------------*\
  =========                 |
  \\      /  F ield         | OpenFOAM: The Open Source CFD Toolbox
   \\    /   O peration     | Website:  https://openfoam.org
    \\  /    A nd           | Version:  10
     \\/     M anipulation  |
\*---------------------------------------------------------------------------*/
FoamFile
{
    format          ascii;
    class           dictionary;
    location        "system";
    object          controlDict;
}
// * * * * * * * * * * * * * * * * * * * * * * * * * * * * * * * * * * * * * //

application     multiphaseEulerFoam;

startFrom       latestTime;

startTime       0;

stopAt          endTime;

endTime         90;

deltaT          0.0001;

writeControl    adjustableRunTime;

writeInterval   2;

purgeWrite      0;

writeFormat     ascii;

writePrecision  6;

writeCompression off;

timeFormat      general;

timePrecision   7;

runTimeModifiable yes;

adjustTimeStep  yes;

maxCo           0.9;

maxDeltaT       0.1;

functions {
#include "meshEdge"
}

// ************************************************************************* //
