/*--------------------------------*- C++ -*----------------------------------*\
  =========                 |
  \\      /  F ield         | OpenFOAM: The Open Source CFD Toolbox
   \\    /   O peration     | Website:  https://openfoam.org
    \\  /    A nd           | Version:  10
     \\/     M anipulation  |
\*---------------------------------------------------------------------------*/
FoamFile
{
    format      ascii;
    class       featureEdgeMesh;
    location    "constant/triSurface";
    object      disk.eMesh;
}
// * * * * * * * * * * * * * * * * * * * * * * * * * * * * * * * * * * * * * //


// points:

5587
(
(-0.0950355 0.462333 0.17434)
(0.0950355 0.462333 0.17434)
(0.0950355 0.472067 0.17434)
(-0.0950355 0.472067 0.17434)
(-0.1985 0.462333 0.00486667)
(-0.1985 0.462333 -0.00486667)
(-0.103465 0.462333 -0.169473)
(-0.0950355 0.462333 -0.17434)
(0.0950355 0.462333 -0.17434)
(0.103465 0.462333 -0.169473)
(0.1985 0.462333 -0.00486667)
(0.1985 0.462333 0.00486667)
(0.103465 0.462333 0.169473)
(-0.103465 0.462333 0.169473)
(-0.1985 0.472067 0.00486667)
(-0.103465 0.472067 0.169473)
(0.103465 0.472067 0.169473)
(0.1985 0.472067 0.00486667)
(0.1985 0.472067 -0.00486667)
(0.103465 0.472067 -0.169473)
(0.0950355 0.472067 -0.17434)
(-0.0950355 0.472067 -0.17434)
(-0.103465 0.472067 -0.169473)
(-0.1985 0.472067 -0.00486667)
(-0.116699 0.462333 0.00486667)
(-0.116699 0.462333 -0.00486667)
(-0.0625639 0.462333 -0.0986306)
(-0.0541346 0.462333 -0.103497)
(0.0541346 0.462333 -0.103497)
(0.0625639 0.462333 -0.0986306)
(0.116699 0.462333 -0.00486667)
(0.116699 0.462333 0.00486667)
(0.0625639 0.462333 0.0986306)
(0.0541346 0.462333 0.103497)
(-0.0541346 0.462333 0.103497)
(-0.0625639 0.462333 0.0986306)
(0.0541346 0.472067 0.103497)
(-0.116699 0.472067 0.00486667)
(-0.0625639 0.472067 0.0986306)
(-0.0541346 0.472067 0.103497)
(0.0625639 0.472067 0.0986306)
(0.116699 0.472067 0.00486667)
(0.116699 0.472067 -0.00486667)
(0.0625639 0.472067 -0.0986306)
(0.0541346 0.472067 -0.103497)
(-0.0541346 0.472067 -0.103497)
(-0.0625639 0.472067 -0.0986306)
(-0.116699 0.472067 -0.00486667)
(0.0132569 1.12899 0.0688147)
(0.00794816 1.11942 0.0696278)
(-0.0662237 1.20701 0.0229265)
(-0.0642735 1.21658 0.0279306)
(-0.0662237 1.12899 -0.0229265)
(-0.0642735 1.11942 -0.0279306)
(0.0132569 1.20701 -0.0688147)
(0.00794816 1.21658 -0.0696278)
(0.0529668 1.12899 -0.0458882)
(0.0563254 1.11942 -0.0416972)
(0.0529668 1.20701 0.0458882)
(0.0563254 1.21658 0.0416972)
(0.00705663 1.1546 0.0283345)
(-0.0261165 1.19097 0.0130601)
(-0.0280667 1.1814 0.00805603)
(0.00174785 1.14503 0.0291476)
(-0.0280667 1.1546 -0.00805603)
(-0.0261165 1.14503 -0.0130601)
(0.00705663 1.1814 -0.0283345)
(0.00174785 1.19097 -0.0291476)
(0.0210101 1.1546 -0.0202785)
(0.0243687 1.14503 -0.0160875)
(0.0210101 1.1814 0.0202785)
(0.0243687 1.19097 0.0160875)
(-0.0937534 0.462333 0.175032)
(-0.0950355 0.463724 0.17434)
(-0.0924662 0.462333 0.175716)
(-0.0911741 0.462333 0.17639)
(-0.089877 0.462333 0.177054)
(-0.0885751 0.462333 0.177709)
(-0.0872685 0.462333 0.178354)
(-0.0859571 0.462333 0.17899)
(-0.0846411 0.462333 0.179616)
(-0.0833205 0.462333 0.180232)
(-0.0819955 0.462333 0.180839)
(-0.080666 0.462333 0.181436)
(-0.0793322 0.462333 0.182023)
(-0.0779941 0.462333 0.182601)
(-0.0766518 0.462333 0.183168)
(-0.0753054 0.462333 0.183726)
(-0.0739549 0.462333 0.184274)
(-0.0726005 0.462333 0.184811)
(-0.0712421 0.462333 0.185339)
(-0.0698799 0.462333 0.185857)
(-0.0685139 0.462333 0.186365)
(-0.0671443 0.462333 0.186863)
(-0.065771 0.462333 0.187351)
(-0.0643942 0.462333 0.187828)
(-0.0630139 0.462333 0.188296)
(-0.0616302 0.462333 0.188753)
(-0.0602432 0.462333 0.189201)
(-0.0588529 0.462333 0.189638)
(-0.0574595 0.462333 0.190064)
(-0.056063 0.462333 0.190481)
(-0.0546635 0.462333 0.190887)
(-0.053261 0.462333 0.191283)
(-0.0518556 0.462333 0.191669)
(-0.0504475 0.462333 0.192045)
(-0.0490367 0.462333 0.19241)
(-0.0476232 0.462333 0.192764)
(-0.0462071 0.462333 0.193109)
(-0.0447885 0.462333 0.193443)
(-0.0433676 0.462333 0.193766)
(-0.0419443 0.462333 0.194079)
(-0.0405187 0.462333 0.194382)
(-0.039091 0.462333 0.194674)
(-0.0376611 0.462333 0.194956)
(-0.0362292 0.462333 0.195227)
(-0.0347954 0.462333 0.195487)
(-0.0333597 0.462333 0.195738)
(-0.0319222 0.462333 0.195977)
(-0.030483 0.462333 0.196206)
(-0.0290421 0.462333 0.196425)
(-0.0275997 0.462333 0.196633)
(-0.0261557 0.462333 0.19683)
(-0.0247104 0.462333 0.197016)
(-0.0232638 0.462333 0.197193)
(-0.0218159 0.462333 0.197358)
(-0.0203668 0.462333 0.197513)
(-0.0189166 0.462333 0.197657)
(-0.0174654 0.462333 0.19779)
(-0.0160132 0.462333 0.197913)
(-0.0145602 0.462333 0.198025)
(-0.0131065 0.462333 0.198127)
(-0.011652 0.462333 0.198218)
(-0.0101968 0.462333 0.198298)
(-0.00874117 0.462333 0.198368)
(-0.00728503 0.462333 0.198426)
(-0.00582849 0.462333 0.198474)
(-0.00437164 0.462333 0.198512)
(-0.00291456 0.462333 0.198539)
(-0.00145732 0.462333 0.198555)
(4.16334e-17 0.462333 0.19856)
(0.00145732 0.462333 0.198555)
(0.00291456 0.462333 0.198539)
(0.00437164 0.462333 0.198512)
(0.00582849 0.462333 0.198474)
(0.00728503 0.462333 0.198426)
(0.00874117 0.462333 0.198368)
(0.0101968 0.462333 0.198298)
(0.011652 0.462333 0.198218)
(0.0131065 0.462333 0.198127)
(0.0145602 0.462333 0.198025)
(0.0160132 0.462333 0.197913)
(0.0174654 0.462333 0.19779)
(0.0189166 0.462333 0.197657)
(0.0203668 0.462333 0.197513)
(0.0218159 0.462333 0.197358)
(0.0232638 0.462333 0.197193)
(0.0247104 0.462333 0.197016)
(0.0261557 0.462333 0.19683)
(0.0275997 0.462333 0.196633)
(0.0290421 0.462333 0.196425)
(0.030483 0.462333 0.196206)
(0.0319222 0.462333 0.195977)
(0.0333597 0.462333 0.195738)
(0.0347954 0.462333 0.195487)
(0.0362292 0.462333 0.195227)
(0.0376611 0.462333 0.194956)
(0.039091 0.462333 0.194674)
(0.0405187 0.462333 0.194382)
(0.0419443 0.462333 0.194079)
(0.0433676 0.462333 0.193766)
(0.0447885 0.462333 0.193443)
(0.0462071 0.462333 0.193109)
(0.0476232 0.462333 0.192764)
(0.0490367 0.462333 0.19241)
(0.0504475 0.462333 0.192045)
(0.0518556 0.462333 0.191669)
(0.053261 0.462333 0.191283)
(0.0546635 0.462333 0.190887)
(0.056063 0.462333 0.190481)
(0.0574595 0.462333 0.190064)
(0.0588529 0.462333 0.189638)
(0.0602432 0.462333 0.189201)
(0.0616302 0.462333 0.188753)
(0.0630139 0.462333 0.188296)
(0.0643942 0.462333 0.187828)
(0.065771 0.462333 0.187351)
(0.0671443 0.462333 0.186863)
(0.0685139 0.462333 0.186365)
(0.0698799 0.462333 0.185857)
(0.0712421 0.462333 0.185339)
(0.0726005 0.462333 0.184811)
(0.0739549 0.462333 0.184274)
(0.0753054 0.462333 0.183726)
(0.0766518 0.462333 0.183168)
(0.0779941 0.462333 0.182601)
(0.0793322 0.462333 0.182023)
(0.080666 0.462333 0.181436)
(0.0819955 0.462333 0.180839)
(0.0833205 0.462333 0.180232)
(0.0846411 0.462333 0.179616)
(0.0859571 0.462333 0.17899)
(0.0872685 0.462333 0.178354)
(0.0885751 0.462333 0.177709)
(0.089877 0.462333 0.177054)
(0.0911741 0.462333 0.17639)
(0.0924662 0.462333 0.175716)
(0.0937534 0.462333 0.175032)
(0.0950355 0.463724 0.17434)
(0.0950355 0.465114 0.17434)
(0.0950355 0.466505 0.17434)
(0.0950355 0.467895 0.17434)
(0.0950355 0.469286 0.17434)
(0.0950355 0.470676 0.17434)
(0.0937534 0.472067 0.175032)
(0.0924662 0.472067 0.175716)
(0.0911741 0.472067 0.17639)
(0.089877 0.472067 0.177054)
(0.0885751 0.472067 0.177709)
(0.0872685 0.472067 0.178354)
(0.0859571 0.472067 0.17899)
(0.0846411 0.472067 0.179616)
(0.0833205 0.472067 0.180232)
(0.0819955 0.472067 0.180839)
(0.080666 0.472067 0.181436)
(0.0793322 0.472067 0.182023)
(0.0779941 0.472067 0.182601)
(0.0766518 0.472067 0.183168)
(0.0753054 0.472067 0.183726)
(0.0739549 0.472067 0.184274)
(0.0726005 0.472067 0.184811)
(0.0712421 0.472067 0.185339)
(0.0698799 0.472067 0.185857)
(0.0685139 0.472067 0.186365)
(0.0671443 0.472067 0.186863)
(0.065771 0.472067 0.187351)
(0.0643942 0.472067 0.187828)
(0.0630139 0.472067 0.188296)
(0.0616302 0.472067 0.188753)
(0.0602432 0.472067 0.189201)
(0.0588529 0.472067 0.189638)
(0.0574595 0.472067 0.190064)
(0.056063 0.472067 0.190481)
(0.0546635 0.472067 0.190887)
(0.053261 0.472067 0.191283)
(0.0518556 0.472067 0.191669)
(0.0504475 0.472067 0.192045)
(0.0490367 0.472067 0.19241)
(0.0476232 0.472067 0.192764)
(0.0462071 0.472067 0.193109)
(0.0447885 0.472067 0.193443)
(0.0433676 0.472067 0.193766)
(0.0419443 0.472067 0.194079)
(0.0405187 0.472067 0.194382)
(0.039091 0.472067 0.194674)
(0.0376611 0.472067 0.194956)
(0.0362292 0.472067 0.195227)
(0.0347954 0.472067 0.195487)
(0.0333597 0.472067 0.195738)
(0.0319222 0.472067 0.195977)
(0.030483 0.472067 0.196206)
(0.0290421 0.472067 0.196425)
(0.0275997 0.472067 0.196633)
(0.0261557 0.472067 0.19683)
(0.0247104 0.472067 0.197016)
(0.0232638 0.472067 0.197193)
(0.0218159 0.472067 0.197358)
(0.0203668 0.472067 0.197513)
(0.0189166 0.472067 0.197657)
(0.0174654 0.472067 0.19779)
(0.0160132 0.472067 0.197913)
(0.0145602 0.472067 0.198025)
(0.0131065 0.472067 0.198127)
(0.011652 0.472067 0.198218)
(0.0101968 0.472067 0.198298)
(0.00874117 0.472067 0.198368)
(0.00728503 0.472067 0.198426)
(0.00582849 0.472067 0.198474)
(0.00437164 0.472067 0.198512)
(0.00291456 0.472067 0.198539)
(0.00145732 0.472067 0.198555)
(-2.63678e-16 0.472067 0.19856)
(-0.00145732 0.472067 0.198555)
(-0.00291456 0.472067 0.198539)
(-0.00437164 0.472067 0.198512)
(-0.00582849 0.472067 0.198474)
(-0.00728503 0.472067 0.198426)
(-0.00874117 0.472067 0.198368)
(-0.0101968 0.472067 0.198298)
(-0.011652 0.472067 0.198218)
(-0.0131065 0.472067 0.198127)
(-0.0145602 0.472067 0.198025)
(-0.0160132 0.472067 0.197913)
(-0.0174654 0.472067 0.19779)
(-0.0189166 0.472067 0.197657)
(-0.0203668 0.472067 0.197513)
(-0.0218159 0.472067 0.197358)
(-0.0232638 0.472067 0.197193)
(-0.0247104 0.472067 0.197016)
(-0.0261557 0.472067 0.19683)
(-0.0275997 0.472067 0.196633)
(-0.0290421 0.472067 0.196425)
(-0.030483 0.472067 0.196206)
(-0.0319222 0.472067 0.195977)
(-0.0333597 0.472067 0.195738)
(-0.0347954 0.472067 0.195487)
(-0.0362292 0.472067 0.195227)
(-0.0376611 0.472067 0.194956)
(-0.039091 0.472067 0.194674)
(-0.0405187 0.472067 0.194382)
(-0.0419443 0.472067 0.194079)
(-0.0433676 0.472067 0.193766)
(-0.0447885 0.472067 0.193443)
(-0.0462071 0.472067 0.193109)
(-0.0476232 0.472067 0.192764)
(-0.0490367 0.472067 0.19241)
(-0.0504475 0.472067 0.192045)
(-0.0518556 0.472067 0.191669)
(-0.053261 0.472067 0.191283)
(-0.0546635 0.472067 0.190887)
(-0.056063 0.472067 0.190481)
(-0.0574595 0.472067 0.190064)
(-0.0588529 0.472067 0.189638)
(-0.0602432 0.472067 0.189201)
(-0.0616302 0.472067 0.188753)
(-0.0630139 0.472067 0.188296)
(-0.0643942 0.472067 0.187828)
(-0.065771 0.472067 0.187351)
(-0.0671443 0.472067 0.186863)
(-0.0685139 0.472067 0.186365)
(-0.0698799 0.472067 0.185857)
(-0.0712421 0.472067 0.185339)
(-0.0726005 0.472067 0.184811)
(-0.0739549 0.472067 0.184274)
(-0.0753054 0.472067 0.183726)
(-0.0766518 0.472067 0.183168)
(-0.0779941 0.472067 0.182601)
(-0.0793322 0.472067 0.182023)
(-0.080666 0.472067 0.181436)
(-0.0819955 0.472067 0.180839)
(-0.0833205 0.472067 0.180232)
(-0.0846411 0.472067 0.179616)
(-0.0859571 0.472067 0.17899)
(-0.0872685 0.472067 0.178354)
(-0.0885751 0.472067 0.177709)
(-0.089877 0.472067 0.177054)
(-0.0911741 0.472067 0.17639)
(-0.0924662 0.472067 0.175716)
(-0.0937534 0.472067 0.175032)
(-0.0950355 0.470676 0.17434)
(-0.0950355 0.469286 0.17434)
(-0.0950355 0.467895 0.17434)
(-0.0950355 0.466505 0.17434)
(-0.0950355 0.465114 0.17434)
(-0.197065 0.462333 0.00486667)
(-0.198459 0.462333 0.00632342)
(-0.19563 0.462333 0.00486667)
(-0.194195 0.462333 0.00486667)
(-0.19276 0.462333 0.00486667)
(-0.191325 0.462333 0.00486667)
(-0.18989 0.462333 0.00486667)
(-0.188454 0.462333 0.00486667)
(-0.187019 0.462333 0.00486667)
(-0.185584 0.462333 0.00486667)
(-0.184149 0.462333 0.00486667)
(-0.182714 0.462333 0.00486667)
(-0.181279 0.462333 0.00486667)
(-0.179844 0.462333 0.00486667)
(-0.178409 0.462333 0.00486667)
(-0.176974 0.462333 0.00486667)
(-0.175538 0.462333 0.00486667)
(-0.174103 0.462333 0.00486667)
(-0.172668 0.462333 0.00486667)
(-0.171233 0.462333 0.00486667)
(-0.169798 0.462333 0.00486667)
(-0.168363 0.462333 0.00486667)
(-0.166928 0.462333 0.00486667)
(-0.165493 0.462333 0.00486667)
(-0.164057 0.462333 0.00486667)
(-0.162622 0.462333 0.00486667)
(-0.161187 0.462333 0.00486667)
(-0.159752 0.462333 0.00486667)
(-0.158317 0.462333 0.00486667)
(-0.156882 0.462333 0.00486667)
(-0.155447 0.462333 0.00486667)
(-0.154012 0.462333 0.00486667)
(-0.152577 0.462333 0.00486667)
(-0.151141 0.462333 0.00486667)
(-0.149706 0.462333 0.00486667)
(-0.148271 0.462333 0.00486667)
(-0.146836 0.462333 0.00486667)
(-0.145401 0.462333 0.00486667)
(-0.143966 0.462333 0.00486667)
(-0.142531 0.462333 0.00486667)
(-0.141096 0.462333 0.00486667)
(-0.139661 0.462333 0.00486667)
(-0.138225 0.462333 0.00486667)
(-0.13679 0.462333 0.00486667)
(-0.135355 0.462333 0.00486667)
(-0.13392 0.462333 0.00486667)
(-0.132485 0.462333 0.00486667)
(-0.13105 0.462333 0.00486667)
(-0.129615 0.462333 0.00486667)
(-0.12818 0.462333 0.00486667)
(-0.126744 0.462333 0.00486667)
(-0.125309 0.462333 0.00486667)
(-0.123874 0.462333 0.00486667)
(-0.122439 0.462333 0.00486667)
(-0.121004 0.462333 0.00486667)
(-0.119569 0.462333 0.00486667)
(-0.118134 0.462333 0.00486667)
(-0.116748 0.462333 0.00347668)
(-0.116781 0.462333 0.00208621)
(-0.116798 0.462333 0.000695435)
(-0.116798 0.462333 -0.000695435)
(-0.116781 0.462333 -0.00208621)
(-0.116748 0.462333 -0.00347668)
(-0.118134 0.462333 -0.00486667)
(-0.119569 0.462333 -0.00486667)
(-0.121004 0.462333 -0.00486667)
(-0.122439 0.462333 -0.00486667)
(-0.123874 0.462333 -0.00486667)
(-0.125309 0.462333 -0.00486667)
(-0.126744 0.462333 -0.00486667)
(-0.12818 0.462333 -0.00486667)
(-0.129615 0.462333 -0.00486667)
(-0.13105 0.462333 -0.00486667)
(-0.132485 0.462333 -0.00486667)
(-0.13392 0.462333 -0.00486667)
(-0.135355 0.462333 -0.00486667)
(-0.13679 0.462333 -0.00486667)
(-0.138225 0.462333 -0.00486667)
(-0.139661 0.462333 -0.00486667)
(-0.141096 0.462333 -0.00486667)
(-0.142531 0.462333 -0.00486667)
(-0.143966 0.462333 -0.00486667)
(-0.145401 0.462333 -0.00486667)
(-0.146836 0.462333 -0.00486667)
(-0.148271 0.462333 -0.00486667)
(-0.149706 0.462333 -0.00486667)
(-0.151141 0.462333 -0.00486667)
(-0.152577 0.462333 -0.00486667)
(-0.154012 0.462333 -0.00486667)
(-0.155447 0.462333 -0.00486667)
(-0.156882 0.462333 -0.00486667)
(-0.158317 0.462333 -0.00486667)
(-0.159752 0.462333 -0.00486667)
(-0.161187 0.462333 -0.00486667)
(-0.162622 0.462333 -0.00486667)
(-0.164057 0.462333 -0.00486667)
(-0.165493 0.462333 -0.00486667)
(-0.166928 0.462333 -0.00486667)
(-0.168363 0.462333 -0.00486667)
(-0.169798 0.462333 -0.00486667)
(-0.171233 0.462333 -0.00486667)
(-0.172668 0.462333 -0.00486667)
(-0.174103 0.462333 -0.00486667)
(-0.175538 0.462333 -0.00486667)
(-0.176974 0.462333 -0.00486667)
(-0.178409 0.462333 -0.00486667)
(-0.179844 0.462333 -0.00486667)
(-0.181279 0.462333 -0.00486667)
(-0.182714 0.462333 -0.00486667)
(-0.184149 0.462333 -0.00486667)
(-0.185584 0.462333 -0.00486667)
(-0.187019 0.462333 -0.00486667)
(-0.188454 0.462333 -0.00486667)
(-0.18989 0.462333 -0.00486667)
(-0.191325 0.462333 -0.00486667)
(-0.19276 0.462333 -0.00486667)
(-0.194195 0.462333 -0.00486667)
(-0.19563 0.462333 -0.00486667)
(-0.198459 0.462333 -0.00632342)
(-0.197065 0.462333 -0.00486667)
(-0.198408 0.462333 -0.00777983)
(-0.198345 0.462333 -0.00923582)
(-0.198272 0.462333 -0.0106913)
(-0.198188 0.462333 -0.0121462)
(-0.198094 0.462333 -0.0136005)
(-0.197988 0.462333 -0.015054)
(-0.197873 0.462333 -0.0165067)
(-0.197746 0.462333 -0.0179586)
(-0.197609 0.462333 -0.0194094)
(-0.197461 0.462333 -0.0208593)
(-0.197303 0.462333 -0.0223079)
(-0.197134 0.462333 -0.0237554)
(-0.196954 0.462333 -0.0252017)
(-0.196764 0.462333 -0.0266465)
(-0.196563 0.462333 -0.0280899)
(-0.196352 0.462333 -0.0295318)
(-0.19613 0.462333 -0.0309721)
(-0.195897 0.462333 -0.0324108)
(-0.195654 0.462333 -0.0338477)
(-0.1954 0.462333 -0.0352828)
(-0.195136 0.462333 -0.036716)
(-0.194861 0.462333 -0.0381472)
(-0.194576 0.462333 -0.0395763)
(-0.19428 0.462333 -0.0410033)
(-0.193974 0.462333 -0.0424281)
(-0.193657 0.462333 -0.0438506)
(-0.19333 0.462333 -0.0452708)
(-0.192993 0.462333 -0.0466885)
(-0.192645 0.462333 -0.0481037)
(-0.192287 0.462333 -0.0495163)
(-0.191918 0.462333 -0.0509263)
(-0.191539 0.462333 -0.0523335)
(-0.19115 0.462333 -0.0537378)
(-0.19075 0.462333 -0.0551393)
(-0.190341 0.462333 -0.0565379)
(-0.18992 0.462333 -0.0579333)
(-0.18949 0.462333 -0.0593257)
(-0.18905 0.462333 -0.0607148)
(-0.188599 0.462333 -0.0621007)
(-0.188138 0.462333 -0.0634833)
(-0.187667 0.462333 -0.0648624)
(-0.187186 0.462333 -0.066238)
(-0.186695 0.462333 -0.06761)
(-0.186194 0.462333 -0.0689785)
(-0.185682 0.462333 -0.0703432)
(-0.185161 0.462333 -0.0717041)
(-0.18463 0.462333 -0.0730611)
(-0.184089 0.462333 -0.0744142)
(-0.183537 0.462333 -0.0757633)
(-0.182976 0.462333 -0.0771084)
(-0.182406 0.462333 -0.0784492)
(-0.181825 0.462333 -0.0797859)
(-0.181234 0.462333 -0.0811182)
(-0.180634 0.462333 -0.0824462)
(-0.180024 0.462333 -0.0837697)
(-0.179404 0.462333 -0.0850887)
(-0.178775 0.462333 -0.0864032)
(-0.178136 0.462333 -0.087713)
(-0.177488 0.462333 -0.089018)
(-0.17683 0.462333 -0.0903183)
(-0.176162 0.462333 -0.0916137)
(-0.175485 0.462333 -0.0929041)
(-0.174798 0.462333 -0.0941896)
(-0.174102 0.462333 -0.09547)
(-0.173397 0.462333 -0.0967452)
(-0.172682 0.462333 -0.0980152)
(-0.171958 0.462333 -0.09928)
(-0.171225 0.462333 -0.100539)
(-0.170482 0.462333 -0.101793)
(-0.16973 0.462333 -0.103042)
(-0.16897 0.462333 -0.104285)
(-0.1682 0.462333 -0.105522)
(-0.167421 0.462333 -0.106754)
(-0.166633 0.462333 -0.10798)
(-0.165836 0.462333 -0.1092)
(-0.16503 0.462333 -0.110414)
(-0.164215 0.462333 -0.111622)
(-0.163391 0.462333 -0.112824)
(-0.162559 0.462333 -0.114021)
(-0.161718 0.462333 -0.115211)
(-0.160868 0.462333 -0.116394)
(-0.160009 0.462333 -0.117572)
(-0.159142 0.462333 -0.118743)
(-0.158266 0.462333 -0.119908)
(-0.157382 0.462333 -0.121066)
(-0.156489 0.462333 -0.122218)
(-0.155588 0.462333 -0.123364)
(-0.154678 0.462333 -0.124502)
(-0.15376 0.462333 -0.125634)
(-0.152834 0.462333 -0.126759)
(-0.151899 0.462333 -0.127877)
(-0.150957 0.462333 -0.128989)
(-0.150006 0.462333 -0.130093)
(-0.149047 0.462333 -0.131191)
(-0.14808 0.462333 -0.132281)
(-0.147105 0.462333 -0.133364)
(-0.146123 0.462333 -0.13444)
(-0.145132 0.462333 -0.135509)
(-0.144133 0.462333 -0.136571)
(-0.143127 0.462333 -0.137625)
(-0.142113 0.462333 -0.138672)
(-0.141092 0.462333 -0.139711)
(-0.140062 0.462333 -0.140743)
(-0.139026 0.462333 -0.141767)
(-0.137982 0.462333 -0.142784)
(-0.13693 0.462333 -0.143792)
(-0.135871 0.462333 -0.144794)
(-0.134805 0.462333 -0.145787)
(-0.133731 0.462333 -0.146772)
(-0.13265 0.462333 -0.14775)
(-0.131562 0.462333 -0.14872)
(-0.130467 0.462333 -0.149681)
(-0.129365 0.462333 -0.150635)
(-0.128256 0.462333 -0.15158)
(-0.12714 0.462333 -0.152517)
(-0.126017 0.462333 -0.153446)
(-0.124887 0.462333 -0.154367)
(-0.123751 0.462333 -0.15528)
(-0.122608 0.462333 -0.156184)
(-0.121459 0.462333 -0.157079)
(-0.120302 0.462333 -0.157966)
(-0.11914 0.462333 -0.158845)
(-0.117971 0.462333 -0.159715)
(-0.116795 0.462333 -0.160577)
(-0.115614 0.462333 -0.16143)
(-0.114426 0.462333 -0.162274)
(-0.113232 0.462333 -0.163109)
(-0.112031 0.462333 -0.163936)
(-0.110825 0.462333 -0.164754)
(-0.109613 0.462333 -0.165563)
(-0.108395 0.462333 -0.166363)
(-0.107171 0.462333 -0.167154)
(-0.105941 0.462333 -0.167936)
(-0.102747 0.462333 -0.16823)
(-0.104706 0.462333 -0.168709)
(-0.10203 0.462333 -0.166987)
(-0.101312 0.462333 -0.165744)
(-0.100595 0.462333 -0.164502)
(-0.099877 0.462333 -0.163259)
(-0.0991595 0.462333 -0.162016)
(-0.0984419 0.462333 -0.160773)
(-0.0977244 0.462333 -0.15953)
(-0.0970068 0.462333 -0.158287)
(-0.0962892 0.462333 -0.157045)
(-0.0955717 0.462333 -0.155802)
(-0.0948541 0.462333 -0.154559)
(-0.0941366 0.462333 -0.153316)
(-0.093419 0.462333 -0.152073)
(-0.0927014 0.462333 -0.15083)
(-0.0919839 0.462333 -0.149587)
(-0.0912663 0.462333 -0.148345)
(-0.0905488 0.462333 -0.147102)
(-0.0898312 0.462333 -0.145859)
(-0.0891136 0.462333 -0.144616)
(-0.0883961 0.462333 -0.143373)
(-0.0876785 0.462333 -0.14213)
(-0.086961 0.462333 -0.140887)
(-0.0862434 0.462333 -0.139645)
(-0.0855258 0.462333 -0.138402)
(-0.0848083 0.462333 -0.137159)
(-0.0840907 0.462333 -0.135916)
(-0.0833732 0.462333 -0.134673)
(-0.0826556 0.462333 -0.13343)
(-0.0819381 0.462333 -0.132188)
(-0.0812205 0.462333 -0.130945)
(-0.0805029 0.462333 -0.129702)
(-0.0797854 0.462333 -0.128459)
(-0.0790678 0.462333 -0.127216)
(-0.0783503 0.462333 -0.125973)
(-0.0776327 0.462333 -0.12473)
(-0.0769151 0.462333 -0.123488)
(-0.0761976 0.462333 -0.122245)
(-0.07548 0.462333 -0.121002)
(-0.0747624 0.462333 -0.119759)
(-0.0740449 0.462333 -0.118516)
(-0.0733273 0.462333 -0.117273)
(-0.0726098 0.462333 -0.11603)
(-0.0718922 0.462333 -0.114788)
(-0.0711747 0.462333 -0.113545)
(-0.0704571 0.462333 -0.112302)
(-0.0697395 0.462333 -0.111059)
(-0.069022 0.462333 -0.109816)
(-0.0683044 0.462333 -0.108573)
(-0.0675869 0.462333 -0.107331)
(-0.0668693 0.462333 -0.106088)
(-0.0661517 0.462333 -0.104845)
(-0.0654342 0.462333 -0.103602)
(-0.0647166 0.462333 -0.102359)
(-0.0639991 0.462333 -0.101116)
(-0.0632815 0.462333 -0.0998734)
(-0.061385 0.462333 -0.0993686)
(-0.0601974 0.462333 -0.100093)
(-0.0590012 0.462333 -0.100802)
(-0.0577967 0.462333 -0.101498)
(-0.056584 0.462333 -0.102179)
(-0.0553632 0.462333 -0.102845)
(-0.0548522 0.462333 -0.10474)
(-0.0555697 0.462333 -0.105983)
(-0.0562873 0.462333 -0.107226)
(-0.0570049 0.462333 -0.108469)
(-0.0577224 0.462333 -0.109711)
(-0.05844 0.462333 -0.110954)
(-0.0591575 0.462333 -0.112197)
(-0.0598751 0.462333 -0.11344)
(-0.0605927 0.462333 -0.114683)
(-0.0613102 0.462333 -0.115926)
(-0.0620278 0.462333 -0.117169)
(-0.0627453 0.462333 -0.118411)
(-0.0634629 0.462333 -0.119654)
(-0.0641805 0.462333 -0.120897)
(-0.064898 0.462333 -0.12214)
(-0.0656156 0.462333 -0.123383)
(-0.0663331 0.462333 -0.124626)
(-0.0670507 0.462333 -0.125868)
(-0.0677683 0.462333 -0.127111)
(-0.0684858 0.462333 -0.128354)
(-0.0692034 0.462333 -0.129597)
(-0.0699209 0.462333 -0.13084)
(-0.0706385 0.462333 -0.132083)
(-0.0713561 0.462333 -0.133326)
(-0.0720736 0.462333 -0.134568)
(-0.0727912 0.462333 -0.135811)
(-0.0735087 0.462333 -0.137054)
(-0.0742263 0.462333 -0.138297)
(-0.0749438 0.462333 -0.13954)
(-0.0756614 0.462333 -0.140783)
(-0.076379 0.462333 -0.142026)
(-0.0770965 0.462333 -0.143268)
(-0.0778141 0.462333 -0.144511)
(-0.0785317 0.462333 -0.145754)
(-0.0792492 0.462333 -0.146997)
(-0.0799668 0.462333 -0.14824)
(-0.0806843 0.462333 -0.149483)
(-0.0814019 0.462333 -0.150725)
(-0.0821194 0.462333 -0.151968)
(-0.082837 0.462333 -0.153211)
(-0.0835546 0.462333 -0.154454)
(-0.0842721 0.462333 -0.155697)
(-0.0849897 0.462333 -0.15694)
(-0.0857072 0.462333 -0.158183)
(-0.0864248 0.462333 -0.159425)
(-0.0871424 0.462333 -0.160668)
(-0.0878599 0.462333 -0.161911)
(-0.0885775 0.462333 -0.163154)
(-0.089295 0.462333 -0.164397)
(-0.0900126 0.462333 -0.16564)
(-0.0907302 0.462333 -0.166883)
(-0.0914477 0.462333 -0.168125)
(-0.0921653 0.462333 -0.169368)
(-0.0928828 0.462333 -0.170611)
(-0.0936004 0.462333 -0.171854)
(-0.0937534 0.462333 -0.175032)
(-0.094318 0.462333 -0.173097)
(-0.0924662 0.462333 -0.175716)
(-0.0911741 0.462333 -0.17639)
(-0.089877 0.462333 -0.177054)
(-0.0885751 0.462333 -0.177709)
(-0.0872685 0.462333 -0.178354)
(-0.0859571 0.462333 -0.17899)
(-0.0846411 0.462333 -0.179616)
(-0.0833205 0.462333 -0.180232)
(-0.0819955 0.462333 -0.180839)
(-0.080666 0.462333 -0.181436)
(-0.0793322 0.462333 -0.182023)
(-0.0779941 0.462333 -0.182601)
(-0.0766518 0.462333 -0.183168)
(-0.0753054 0.462333 -0.183726)
(-0.0739549 0.462333 -0.184274)
(-0.0726005 0.462333 -0.184811)
(-0.0712421 0.462333 -0.185339)
(-0.0698799 0.462333 -0.185857)
(-0.0685139 0.462333 -0.186365)
(-0.0671443 0.462333 -0.186863)
(-0.065771 0.462333 -0.187351)
(-0.0643942 0.462333 -0.187828)
(-0.0630139 0.462333 -0.188296)
(-0.0616302 0.462333 -0.188753)
(-0.0602432 0.462333 -0.189201)
(-0.0588529 0.462333 -0.189638)
(-0.0574595 0.462333 -0.190064)
(-0.056063 0.462333 -0.190481)
(-0.0546635 0.462333 -0.190887)
(-0.053261 0.462333 -0.191283)
(-0.0518556 0.462333 -0.191669)
(-0.0504475 0.462333 -0.192045)
(-0.0490367 0.462333 -0.19241)
(-0.0476232 0.462333 -0.192764)
(-0.0462071 0.462333 -0.193109)
(-0.0447885 0.462333 -0.193443)
(-0.0433676 0.462333 -0.193766)
(-0.0419443 0.462333 -0.194079)
(-0.0405187 0.462333 -0.194382)
(-0.039091 0.462333 -0.194674)
(-0.0376611 0.462333 -0.194956)
(-0.0362292 0.462333 -0.195227)
(-0.0347954 0.462333 -0.195487)
(-0.0333597 0.462333 -0.195738)
(-0.0319222 0.462333 -0.195977)
(-0.030483 0.462333 -0.196206)
(-0.0290421 0.462333 -0.196425)
(-0.0275997 0.462333 -0.196633)
(-0.0261557 0.462333 -0.19683)
(-0.0247104 0.462333 -0.197016)
(-0.0232638 0.462333 -0.197193)
(-0.0218159 0.462333 -0.197358)
(-0.0203668 0.462333 -0.197513)
(-0.0189166 0.462333 -0.197657)
(-0.0174654 0.462333 -0.19779)
(-0.0160132 0.462333 -0.197913)
(-0.0145602 0.462333 -0.198025)
(-0.0131065 0.462333 -0.198127)
(-0.011652 0.462333 -0.198218)
(-0.0101968 0.462333 -0.198298)
(-0.00874117 0.462333 -0.198368)
(-0.00728503 0.462333 -0.198426)
(-0.00582849 0.462333 -0.198474)
(-0.00437164 0.462333 -0.198512)
(-0.00291456 0.462333 -0.198539)
(-0.00145732 0.462333 -0.198555)
(1.17064e-15 0.462333 -0.19856)
(0.00145732 0.462333 -0.198555)
(0.00291456 0.462333 -0.198539)
(0.00437164 0.462333 -0.198512)
(0.00582849 0.462333 -0.198474)
(0.00728503 0.462333 -0.198426)
(0.00874117 0.462333 -0.198368)
(0.0101968 0.462333 -0.198298)
(0.011652 0.462333 -0.198218)
(0.0131065 0.462333 -0.198127)
(0.0145602 0.462333 -0.198025)
(0.0160132 0.462333 -0.197913)
(0.0174654 0.462333 -0.19779)
(0.0189166 0.462333 -0.197657)
(0.0203668 0.462333 -0.197513)
(0.0218159 0.462333 -0.197358)
(0.0232638 0.462333 -0.197193)
(0.0247104 0.462333 -0.197016)
(0.0261557 0.462333 -0.19683)
(0.0275997 0.462333 -0.196633)
(0.0290421 0.462333 -0.196425)
(0.030483 0.462333 -0.196206)
(0.0319222 0.462333 -0.195977)
(0.0333597 0.462333 -0.195738)
(0.0347954 0.462333 -0.195487)
(0.0362292 0.462333 -0.195227)
(0.0376611 0.462333 -0.194956)
(0.039091 0.462333 -0.194674)
(0.0405187 0.462333 -0.194382)
(0.0419443 0.462333 -0.194079)
(0.0433676 0.462333 -0.193766)
(0.0447885 0.462333 -0.193443)
(0.0462071 0.462333 -0.193109)
(0.0476232 0.462333 -0.192764)
(0.0490367 0.462333 -0.19241)
(0.0504475 0.462333 -0.192045)
(0.0518556 0.462333 -0.191669)
(0.053261 0.462333 -0.191283)
(0.0546635 0.462333 -0.190887)
(0.056063 0.462333 -0.190481)
(0.0574595 0.462333 -0.190064)
(0.0588529 0.462333 -0.189638)
(0.0602432 0.462333 -0.189201)
(0.0616302 0.462333 -0.188753)
(0.0630139 0.462333 -0.188296)
(0.0643942 0.462333 -0.187828)
(0.065771 0.462333 -0.187351)
(0.0671443 0.462333 -0.186863)
(0.0685139 0.462333 -0.186365)
(0.0698799 0.462333 -0.185857)
(0.0712421 0.462333 -0.185339)
(0.0726005 0.462333 -0.184811)
(0.0739549 0.462333 -0.184274)
(0.0753054 0.462333 -0.183726)
(0.0766518 0.462333 -0.183168)
(0.0779941 0.462333 -0.182601)
(0.0793322 0.462333 -0.182023)
(0.080666 0.462333 -0.181436)
(0.0819955 0.462333 -0.180839)
(0.0833205 0.462333 -0.180232)
(0.0846411 0.462333 -0.179616)
(0.0859571 0.462333 -0.17899)
(0.0872685 0.462333 -0.178354)
(0.0885751 0.462333 -0.177709)
(0.089877 0.462333 -0.177054)
(0.0911741 0.462333 -0.17639)
(0.0924662 0.462333 -0.175716)
(0.094318 0.462333 -0.173097)
(0.0937534 0.462333 -0.175032)
(0.0936004 0.462333 -0.171854)
(0.0928828 0.462333 -0.170611)
(0.0921653 0.462333 -0.169368)
(0.0914477 0.462333 -0.168125)
(0.0907302 0.462333 -0.166883)
(0.0900126 0.462333 -0.16564)
(0.089295 0.462333 -0.164397)
(0.0885775 0.462333 -0.163154)
(0.0878599 0.462333 -0.161911)
(0.0871424 0.462333 -0.160668)
(0.0864248 0.462333 -0.159425)
(0.0857072 0.462333 -0.158183)
(0.0849897 0.462333 -0.15694)
(0.0842721 0.462333 -0.155697)
(0.0835546 0.462333 -0.154454)
(0.082837 0.462333 -0.153211)
(0.0821194 0.462333 -0.151968)
(0.0814019 0.462333 -0.150725)
(0.0806843 0.462333 -0.149483)
(0.0799668 0.462333 -0.14824)
(0.0792492 0.462333 -0.146997)
(0.0785317 0.462333 -0.145754)
(0.0778141 0.462333 -0.144511)
(0.0770965 0.462333 -0.143268)
(0.076379 0.462333 -0.142026)
(0.0756614 0.462333 -0.140783)
(0.0749438 0.462333 -0.13954)
(0.0742263 0.462333 -0.138297)
(0.0735087 0.462333 -0.137054)
(0.0727912 0.462333 -0.135811)
(0.0720736 0.462333 -0.134568)
(0.0713561 0.462333 -0.133326)
(0.0706385 0.462333 -0.132083)
(0.0699209 0.462333 -0.13084)
(0.0692034 0.462333 -0.129597)
(0.0684858 0.462333 -0.128354)
(0.0677683 0.462333 -0.127111)
(0.0670507 0.462333 -0.125868)
(0.0663331 0.462333 -0.124626)
(0.0656156 0.462333 -0.123383)
(0.064898 0.462333 -0.12214)
(0.0641805 0.462333 -0.120897)
(0.0634629 0.462333 -0.119654)
(0.0627453 0.462333 -0.118411)
(0.0620278 0.462333 -0.117169)
(0.0613102 0.462333 -0.115926)
(0.0605927 0.462333 -0.114683)
(0.0598751 0.462333 -0.11344)
(0.0591575 0.462333 -0.112197)
(0.05844 0.462333 -0.110954)
(0.0577224 0.462333 -0.109711)
(0.0570049 0.462333 -0.108469)
(0.0562873 0.462333 -0.107226)
(0.0555697 0.462333 -0.105983)
(0.0548522 0.462333 -0.10474)
(0.0553632 0.462333 -0.102845)
(0.056584 0.462333 -0.102179)
(0.0577967 0.462333 -0.101498)
(0.0590012 0.462333 -0.100802)
(0.0601974 0.462333 -0.100093)
(0.061385 0.462333 -0.0993686)
(0.0632815 0.462333 -0.0998734)
(0.0639991 0.462333 -0.101116)
(0.0647166 0.462333 -0.102359)
(0.0654342 0.462333 -0.103602)
(0.0661517 0.462333 -0.104845)
(0.0668693 0.462333 -0.106088)
(0.0675869 0.462333 -0.107331)
(0.0683044 0.462333 -0.108573)
(0.069022 0.462333 -0.109816)
(0.0697395 0.462333 -0.111059)
(0.0704571 0.462333 -0.112302)
(0.0711747 0.462333 -0.113545)
(0.0718922 0.462333 -0.114788)
(0.0726098 0.462333 -0.11603)
(0.0733273 0.462333 -0.117273)
(0.0740449 0.462333 -0.118516)
(0.0747624 0.462333 -0.119759)
(0.07548 0.462333 -0.121002)
(0.0761976 0.462333 -0.122245)
(0.0769151 0.462333 -0.123488)