/*--------------------------------*- C++ -*----------------------------------*\
  =========                 |
  \\      /  F ield         | OpenFOAM: The Open Source CFD Toolbox
   \\    /   O peration     | Website:  https://openfoam.org
    \\  /    A nd           | Version:  10
     \\/     M anipulation  |
\*---------------------------------------------------------------------------*/
FoamFile
{
    format      ascii;
    class       featureEdgeMesh;
    location    "constant/triSurface";
    object      MRF.eMesh;
}
// * * * * * * * * * * * * * * * * * * * * * * * * * * * * * * * * * * * * * //


// points:

14903
(
(-0.0280667 1.1546 -0.00805603)
(-0.0261165 1.14503 -0.0130601)
(0.00174785 1.19097 -0.0291476)
(0.00705663 1.1814 -0.0283345)
(-0.0261165 1.19097 0.0130601)
(0.00705663 1.1546 0.0283345)
(0.00174785 1.14503 0.0291476)
(-0.0280667 1.1814 0.00805603)
(0.0210101 1.1546 -0.0202785)
(0.0243687 1.14503 -0.0160875)
(0.0243687 1.19097 0.0160875)
(0.0210101 1.1814 0.0202785)
(0.0301744 1.05912 0.179264)
(-0.164374 1.28376 0.0669415)
(-0.170334 1.27688 0.0635002)
(0.0242139 1.05224 0.175823)
(-0.170334 1.05912 -0.0635002)
(-0.164374 1.05224 -0.0669415)
(0.0301744 1.27688 -0.179264)
(0.0242139 1.28376 -0.175823)
(0.14016 1.05912 -0.115764)
(0.14016 1.05224 -0.108881)
(0.14016 1.27688 0.115764)
(0.14016 1.28376 0.108881)
(-0.233549 0.42048 0.00486667)
(-0.233549 0.51392 0.00486667)
(-0.116699 0.51392 0.00486667)
(-0.116699 0.42048 0.00486667)
(-0.116699 0.51392 -0.00486667)
(-0.233549 0.51392 -0.00486667)
(-0.233549 0.42048 -0.00486667)
(-0.116699 0.42048 -0.00486667)
(-0.120989 0.51392 0.199826)
(-0.120989 0.42048 0.199826)
(-0.0625639 0.42048 0.0986306)
(-0.0625639 0.51392 0.0986306)
(-0.0541346 0.51392 0.103497)
(-0.0625639 0.42048 -0.0986306)
(-0.120989 0.42048 -0.199826)
(-0.120989 0.51392 -0.199826)
(-0.0625639 0.51392 -0.0986306)
(-0.11256 0.42048 0.204693)
(-0.11256 0.51392 0.204693)
(-0.0541346 0.42048 0.103497)
(-0.0541346 0.51392 -0.103497)
(-0.0541346 0.42048 -0.103497)
(-0.11256 0.51392 -0.204693)
(-0.11256 0.42048 -0.204693)
(0.11256 0.51392 0.204693)
(0.11256 0.42048 0.204693)
(0.0541346 0.42048 0.103497)
(0.0541346 0.51392 0.103497)
(0.0625639 0.51392 0.0986306)
(0.0541346 0.42048 -0.103497)
(0.11256 0.42048 -0.204693)
(0.11256 0.51392 -0.204693)
(0.0541346 0.51392 -0.103497)
(0.120989 0.42048 0.199826)
(0.120989 0.51392 0.199826)
(0.0625639 0.42048 0.0986306)
(0.0625639 0.51392 -0.0986306)
(0.0625639 0.42048 -0.0986306)
(0.120989 0.51392 -0.199826)
(0.120989 0.42048 -0.199826)
(0.116699 0.42048 0.00486667)
(0.116699 0.51392 0.00486667)
(0.233549 0.51392 0.00486667)
(0.233549 0.42048 0.00486667)
(0.116699 0.51392 -0.00486667)
(0.116699 0.42048 -0.00486667)
(0.233549 0.42048 -0.00486667)
(0.233549 0.51392 -0.00486667)
(0.00794816 1.11942 0.0696278)
(0.0132569 1.12899 0.0688147)
(-0.0642735 1.21658 0.0279306)
(-0.0662237 1.20701 0.0229265)
(-0.0642735 1.11942 -0.0279306)
(-0.0662237 1.12899 -0.0229265)
(0.00794816 1.21658 -0.0696278)
(0.0132569 1.20701 -0.0688147)
(0.0563254 1.11942 -0.0416972)
(0.0529668 1.12899 -0.0458882)
(0.0563254 1.21658 0.0416972)
(0.0529668 1.20701 0.0458882)
(-0.1985 0.472067 0.00486667)
(-0.116699 0.472067 0.00486667)
(-0.116699 0.472067 -0.00486667)
(-0.1985 0.472067 -0.00486667)
(-0.103465 0.472067 -0.169473)
(-0.0625639 0.472067 -0.0986306)
(-0.0541346 0.472067 -0.103497)
(-0.0950355 0.472067 -0.17434)
(0.0950355 0.472067 -0.17434)
(0.0541346 0.472067 -0.103497)
(0.0625639 0.472067 -0.0986306)
(0.103465 0.472067 -0.169473)
(0.1985 0.472067 -0.00486667)
(0.116699 0.472067 -0.00486667)
(0.116699 0.472067 0.00486667)
(0.1985 0.472067 0.00486667)
(0.103465 0.472067 0.169473)
(0.0625639 0.472067 0.0986306)
(0.0541346 0.472067 0.103497)
(0.0950355 0.472067 0.17434)
(-0.0950355 0.472067 0.17434)
(-0.0541346 0.472067 0.103497)
(-0.0625639 0.472067 0.0986306)
(-0.103465 0.472067 0.169473)
(-0.1985 0.462333 0.00486667)
(-0.116699 0.462333 0.00486667)
(-0.103465 0.462333 0.169473)
(-0.116699 0.462333 -0.00486667)
(-0.1985 0.462333 -0.00486667)
(-0.0625639 0.462333 0.0986306)
(-0.103465 0.462333 -0.169473)
(-0.0625639 0.462333 -0.0986306)
(-0.0950355 0.462333 0.17434)
(-0.0541346 0.462333 0.103497)
(0.0950355 0.462333 0.17434)
(-0.0541346 0.462333 -0.103497)
(-0.0950355 0.462333 -0.17434)
(0.0541346 0.462333 0.103497)
(0.0950355 0.462333 -0.17434)
(0.0541346 0.462333 -0.103497)
(0.103465 0.462333 0.169473)
(0.0625639 0.462333 0.0986306)
(0.1985 0.462333 0.00486667)
(0.0625639 0.462333 -0.0986306)
(0.103465 0.462333 -0.169473)
(0.116699 0.462333 0.00486667)
(0.1985 0.462333 -0.00486667)
(0.116699 0.462333 -0.00486667)
(-1.71646e-17 1.12608 0.07008)
(0.000982648 1.12523 0.0700731)
(0.0019686 1.12439 0.0700523)
(0.00295777 1.12355 0.0700176)
(0.00395004 1.12271 0.0699686)
(0.00494533 1.12188 0.0699053)
(0.00594351 1.12106 0.0698275)
(0.0069445 1.12024 0.0697351)
(0.00862112 1.12061 0.0695477)
(0.00929139 1.12181 0.0694613)
(0.00995899 1.123 0.0693688)
(0.0106239 1.1242 0.06927)
(0.0112862 1.1254 0.0691652)
(0.0119457 1.1266 0.0690544)
(0.0126027 1.12779 0.0689375)
(0.0121356 1.12986 0.0690213)
(0.0110167 1.13074 0.0692087)
(0.00990037 1.13162 0.0693771)
(0.0087869 1.13251 0.0695269)
(0.00767643 1.1334 0.0696583)
(0.00656911 1.13431 0.0697714)
(0.00546511 1.13522 0.0698666)
(0.00436458 1.13613 0.0699439)
(0.00326767 1.13705 0.0700038)
(0.00217452 1.13798 0.0700463)
(0.00108525 1.13891 0.0700716)
(-1.71646e-17 1.13984 0.07008)
(-0.00109618 1.1408 0.0700714)
(-0.00218799 1.14175 0.0700458)
(-0.00327529 1.14272 0.0700034)
(-0.00435796 1.14368 0.0699444)
(-0.00543591 1.14466 0.0698689)
(-0.00650902 1.14563 0.0697771)
(-0.00757719 1.14661 0.0696692)
(-0.0086403 1.14759 0.0695453)
(-0.00969827 1.14858 0.0694057)
(-0.010751 1.14957 0.0692504)
(-0.0117984 1.15056 0.0690797)
(-0.0128403 1.15156 0.0688936)
(-0.0138768 1.15255 0.0686924)
(-0.0149076 1.15356 0.0684761)
(-0.0159326 1.15456 0.0682448)
(-0.016952 1.15556 0.0679988)
(-0.0179654 1.15657 0.0677381)
(-0.0189729 1.15758 0.0674629)
(-0.0199743 1.15859 0.0671732)
(-0.0209695 1.15961 0.0668692)
(-0.0219586 1.16062 0.0665509)
(-0.0229413 1.16164 0.0662186)
(-0.0239177 1.16266 0.0658722)
(-0.0248876 1.16368 0.0655119)
(-0.0258509 1.1647 0.0651378)
(-0.0268076 1.16572 0.06475)
(-0.0277576 1.16675 0.0643485)
(-0.0287007 1.16777 0.0639334)
(-0.029637 1.1688 0.0635048)
(-0.0305662 1.16982 0.0630628)
(-0.0314884 1.17085 0.0626074)
(-0.0324034 1.17188 0.0621388)
(-0.0333112 1.1729 0.0616569)
(-0.0342116 1.17393 0.0611619)
(-0.0351045 1.17496 0.0606538)
(-0.03599 1.17598 0.0601326)
(-0.0368677 1.17701 0.0595985)
(-0.0377378 1.17804 0.0590514)
(-0.0386 1.17906 0.0584914)
(-0.0394543 1.18009 0.0579186)
(-0.0403006 1.18112 0.057333)
(-0.0411386 1.18214 0.0567346)
(-0.0419685 1.18317 0.0561235)
(-0.04279 1.18419 0.0554998)
(-0.043603 1.18521 0.0548633)
(-0.0444074 1.18623 0.0542143)
(-0.0452031 1.18725 0.0535527)
(-0.0459899 1.18827 0.0528785)
(-0.0467678 1.18929 0.0521917)
(-0.0475366 1.1903 0.0514925)
(-0.0482962 1.19132 0.0507808)
(-0.0490464 1.19233 0.0500566)
(-0.0497871 1.19334 0.0493199)
(-0.0505182 1.19435 0.0485708)
(-0.0512395 1.19535 0.0478092)
(-0.0519508 1.19636 0.0470353)
(-0.0526521 1.19736 0.0462489)
(-0.0533431 1.19835 0.0454502)
(-0.0540237 1.19935 0.0446391)
(-0.0546937 1.20034 0.0438156)
(-0.0553529 1.20133 0.0429798)
(-0.0560012 1.20231 0.0421315)
(-0.0566384 1.2033 0.041271)
(-0.0572643 1.20428 0.0403981)
(-0.0578787 1.20525 0.0395129)
(-0.0584813 1.20622 0.0386153)
(-0.0590721 1.20719 0.0377054)
(-0.0596507 1.20815 0.0367832)
(-0.0602169 1.20911 0.0358487)
(-0.0607706 1.21006 0.0349019)
(-0.0613115 1.21101 0.0339427)
(-0.0618393 1.21195 0.0329713)
(-0.0623538 1.21289 0.0319877)
(-0.0628547 1.21382 0.0309917)
(-0.0633419 1.21475 0.0299836)
(-0.0638149 1.21567 0.0289632)
(-0.0645406 1.21539 0.0273077)
(-0.064801 1.21419 0.0266841)
(-0.0650546 1.213 0.0260596)
(-0.0653016 1.2118 0.0254344)
(-0.0655419 1.2106 0.0248085)
(-0.0657757 1.2094 0.0241819)
(-0.066003 1.20821 0.0235545)
(-0.065838 1.20613 0.0240117)
(-0.0654366 1.20525 0.0250851)
(-0.0650198 1.20435 0.0261464)
(-0.0645879 1.20345 0.0271957)
(-0.0641413 1.20255 0.0282329)
(-0.0636802 1.20164 0.0292581)
(-0.063205 1.20072 0.0302711)
(-0.0627158 1.1998 0.031272)
(-0.0622129 1.19887 0.0322608)
(-0.0616967 1.19793 0.0332374)
(-0.0611673 1.19699 0.0342018)
(-0.0606251 1.19604 0.035154)
(-0.0600702 1.19509 0.036094)
(-0.0595029 1.19414 0.0370218)
(-0.0589233 1.19318 0.0379374)
(-0.0583318 1.19221 0.0388408)
(-0.0577285 1.19125 0.0397319)
(-0.0571137 1.19027 0.0406108)
(-0.0564874 1.1893 0.0414774)
(-0.05585 1.18832 0.0423318)
(-0.0552016 1.18734 0.0431739)
(-0.0545424 1.18635 0.0440038)
(-0.0538726 1.18536 0.0448214)
(-0.0531922 1.18437 0.0456267)
(-0.0525016 1.18338 0.0464197)
(-0.0518008 1.18238 0.0472004)
(-0.0510901 1.18138 0.0479688)
(-0.0503695 1.18038 0.0487249)
(-0.0496392 1.17937 0.0494687)
(-0.0488994 1.17837 0.0502001)
(-0.0481502 1.17736 0.0509192)
(-0.0473917 1.17635 0.0516259)
(-0.0466242 1.17534 0.0523201)
(-0.0458476 1.17432 0.053002)
(-0.0450621 1.17331 0.0536713)
(-0.0442679 1.17229 0.0543283)
(-0.0434651 1.17127 0.0549727)
(-0.0426537 1.17025 0.0556046)
(-0.0418339 1.16923 0.0562239)
(-0.0410059 1.16821 0.0568306)
(-0.0401697 1.16719 0.0574248)
(-0.0393254 1.16617 0.0580062)
(-0.0384732 1.16515 0.0585749)
(-0.0376131 1.16413 0.0591309)
(-0.0367452 1.1631 0.0596741)
(-0.0358697 1.16208 0.0602044)
(-0.0349866 1.16106 0.0607218)
(-0.0340961 1.16003 0.0612263)
(-0.0331981 1.15901 0.0617178)
(-0.0322929 1.15799 0.0621963)
(-0.0313805 1.15696 0.0626615)
(-0.030461 1.15594 0.0631137)
(-0.0295345 1.15492 0.0635525)
(-0.0286011 1.1539 0.063978)
(-0.0276608 1.15288 0.0643901)
(-0.0267137 1.15186 0.0647888)
(-0.02576 1.15084 0.0651738)
(-0.0247997 1.14982 0.0655453)
(-0.0238329 1.14881 0.0659029)
(-0.0228597 1.14779 0.0662468)
(-0.0218802 1.14678 0.0665767)
(-0.0208944 1.14577 0.0668927)
(-0.0199024 1.14476 0.0671945)
(-0.0189044 1.14375 0.0674821)
(-0.0179003 1.14274 0.0677553)
(-0.0168904 1.14174 0.0680141)
(-0.0158746 1.14074 0.0682584)
(-0.0148531 1.13974 0.0684879)
(-0.0138259 1.13874 0.0687026)
(-0.0127931 1.13775 0.0689024)
(-0.0117549 1.13675 0.0690871)
(-0.0107112 1.13576 0.0692566)
(-0.0096623 1.13478 0.0694107)
(-0.00860817 1.1338 0.0695493)
(-0.00754894 1.13282 0.0696722)
(-0.0064847 1.13184 0.0697793)
(-0.00541555 1.13087 0.0698704)
(-0.0043416 1.1299 0.0699454)
(-0.00326296 1.12894 0.070004)
(-0.00217974 1.12798 0.0700461)
(-0.00109204 1.12703 0.0700715)
(-0.0645406 1.12061 -0.0273077)
(-0.064801 1.12181 -0.0266841)
(-0.0650546 1.123 -0.0260596)
(-0.0653016 1.1242 -0.0254344)
(-0.0655419 1.1254 -0.0248085)
(-0.0657757 1.1266 -0.0241819)
(-0.066003 1.12779 -0.0235545)
(-0.0658372 1.12987 -0.0240138)
(-0.065435 1.13076 -0.0250892)
(-0.0650173 1.13165 -0.0261525)
(-0.0645845 1.13255 -0.0272037)
(-0.0641369 1.13346 -0.0282429)
(-0.0636748 1.13437 -0.0292699)
(-0.0631984 1.13529 -0.0302848)
(-0.0627081 1.13622 -0.0312874)
(-0.062204 1.13715 -0.0322779)
(-0.0616866 1.13809 -0.0332562)
(-0.0611559 1.13903 -0.0342222)
(-0.0606124 1.13998 -0.035176)
(-0.0600561 1.14093 -0.0361175)
(-0.0594873 1.14189 -0.0370468)
(-0.0589063 1.14285 -0.0379638)
(-0.0583133 1.14382 -0.0388685)
(-0.0577085 1.14479 -0.039761)
(-0.0570921 1.14576 -0.0406412)
(-0.0564642 1.14674 -0.041509)
(-0.0558252 1.14772 -0.0423646)
(-0.0551751 1.1487 -0.0432079)
(-0.0545141 1.14969 -0.0440388)
(-0.0538425 1.15068 -0.0448575)
(-0.0531604 1.15168 -0.0456638)
(-0.0524679 1.15267 -0.0464578)
(-0.0517653 1.15367 -0.0472394)
(-0.0510527 1.15467 -0.0480087)
(-0.0503302 1.15568 -0.0487656)
(-0.0495979 1.15668 -0.0495101)
(-0.0488562 1.15769 -0.0502422)
(-0.048105 1.1587 -0.0509619)
(-0.0473445 1.15972 -0.0516692)
(-0.0465748 1.16073 -0.052364)
(-0.0457961 1.16174 -0.0530464)
(-0.0450086 1.16276 -0.0537162)
(-0.0442122 1.16378 -0.0543736)
(-0.0434072 1.1648 -0.0550184)
(-0.0425937 1.16582 -0.0556506)
(-0.0417717 1.16684 -0.0562701)
(-0.0409415 1.16787 -0.0568771)
(-0.040103 1.16889 -0.0574713)
(-0.0392564 1.16991 -0.0580529)
(-0.0384019 1.17094 -0.0586217)
(-0.0375395 1.17196 -0.0591776)
(-0.0366693 1.17299 -0.0597208)
(-0.0357914 1.17401 -0.060251)
(-0.0349059 1.17504 -0.0607683)
(-0.034013 1.17606 -0.0612726)
(-0.0331126 1.17709 -0.0617638)
(-0.0322049 1.17811 -0.0622418)
(-0.0312901 1.17914 -0.0627068)
(-0.0303681 1.18016 -0.0631584)
(-0.0294391 1.18119 -0.0635968)
(-0.0285031 1.18221 -0.0640217)
(-0.0275603 1.18323 -0.0644332)
(-0.0266107 1.18425 -0.0648312)
(-0.0256544 1.18527 -0.0652155)
(-0.0246915 1.18629 -0.0655861)
(-0.0237221 1.18731 -0.0659429)
(-0.0227463 1.18833 -0.0662858)
(-0.0217641 1.18934 -0.0666148)
(-0.0207757 1.19035 -0.0669297)
(-0.0197811 1.19137 -0.0672303)
(-0.0187803 1.19238 -0.0675167)
(-0.0177736 1.19338 -0.0677887)
(-0.0167609 1.19439 -0.0680461)
(-0.0157424 1.19539 -0.068289)
(-0.0147182 1.1964 -0.068517)
(-0.0136883 1.19739 -0.0687302)
(-0.0126528 1.19839 -0.0689283)
(-0.0116118 1.19938 -0.0691113)
(-0.0105654 1.20037 -0.069279)
(-0.00951368 1.20136 -0.0694312)
(-0.00845678 1.20234 -0.0695679)
(-0.00739476 1.20332 -0.0696888)
(-0.00632774 1.2043 -0.0697937)
(-0.0052558 1.20527 -0.0698826)
(-0.00417906 1.20624 -0.0699553)
(-0.00309763 1.20721 -0.0700115)
(-0.00201161 1.20817 -0.0700511)
(-0.000921127 1.20912 -0.0700739)
(0.000173706 1.21007 -0.0700798)
(0.00127276 1.21102 -0.0700684)
(0.00237591 1.21196 -0.0700397)
(0.00348302 1.2129 -0.0699934)
(0.00459395 1.21383 -0.0699293)
(0.00570855 1.21475 -0.0698471)
(0.00682667 1.21567 -0.0697467)
(0.00862112 1.21539 -0.0695477)
(0.00929139 1.21419 -0.0694613)
(0.00995899 1.213 -0.0693688)
(0.0106239 1.2118 -0.06927)
(0.0112862 1.2106 -0.0691652)
(0.0119457 1.2094 -0.0690544)
(0.0126027 1.20821 -0.0689375)
(0.012122 1.20613 -0.0690236)
(0.0109896 1.20524 -0.069213)
(0.00985993 1.20435 -0.0693829)
(0.00873313 1.20345 -0.0695337)
(0.00760939 1.20254 -0.0696657)
(0.00648891 1.20163 -0.0697789)
(0.00537183 1.20071 -0.0698738)
(0.00425832 1.19978 -0.0699505)
(0.00314853 1.19885 -0.0700092)
(0.0020426 1.19791 -0.0700502)
(0.000940675 1.19697 -0.0700737)
(-0.00015712 1.19602 -0.0700798)
(-0.00125065 1.19507 -0.0700688)
(-0.0023398 1.19411 -0.0700409)
(-0.00342445 1.19315 -0.0699963)
(-0.00450448 1.19218 -0.0699351)
(-0.00557978 1.19121 -0.0698575)
(-0.00665024 1.19024 -0.0697637)
(-0.00771577 1.18926 -0.069654)
(-0.00877625 1.18828 -0.0695283)
(-0.00983159 1.1873 -0.0693869)
(-0.0108817 1.18631 -0.06923)
(-0.0119265 1.18532 -0.0690577)
(-0.0129658 1.18432 -0.0688701)
(-0.0139996 1.18333 -0.0686674)
(-0.0150279 1.18233 -0.0684498)
(-0.0160504 1.18133 -0.0682172)
(-0.0170671 1.18032 -0.06797)
(-0.018078 1.17932 -0.0677081)
(-0.019083 1.17831 -0.0674318)
(-0.0200818 1.1773 -0.0671411)
(-0.0210746 1.17628 -0.0668361)
(-0.0220612 1.17527 -0.066517)
(-0.0230414 1.17426 -0.0661838)
(-0.0240153 1.17324 -0.0658367)
(-0.0249828 1.17222 -0.0654757)
(-0.0259437 1.1712 -0.0651009)
(-0.026898 1.17018 -0.0647125)
(-0.0278455 1.16916 -0.0643104)
(-0.0287863 1.16814 -0.0638949)
(-0.0297201 1.16711 -0.0634659)
(-0.0306471 1.16609 -0.0630235)
(-0.0315669 1.16506 -0.0625679)
(-0.0324796 1.16404 -0.062099)
(-0.0333851 1.16301 -0.0616169)
(-0.0342832 1.16199 -0.0611218)
(-0.0351739 1.16096 -0.0606136)
(-0.0360571 1.15994 -0.0600924)
(-0.0369327 1.15891 -0.0595582)
(-0.0378006 1.15789 -0.0590112)
(-0.0386606 1.15686 -0.0584514)
(-0.0395127 1.15584 -0.0578788)
(-0.0403569 1.15481 -0.0572934)
(-0.0411929 1.15379 -0.0566953)
(-0.0420206 1.15277 -0.0560845)
(-0.0428401 1.15175 -0.0554611)
(-0.0436511 1.15073 -0.0548251)
(-0.0444534 1.14971 -0.0541765)
(-0.0452472 1.14869 -0.0535154)
(-0.0460321 1.14767 -0.0528418)
(-0.046808 1.14666 -0.0521557)
(-0.0475749 1.14565 -0.0514571)
(-0.0483326 1.14463 -0.0507461)
(-0.049081 1.14362 -0.0500226)
(-0.0498199 1.14262 -0.0492867)
(-0.0505492 1.14161 -0.0485385)
(-0.0512687 1.14061 -0.0477778)
(-0.0519784 1.13961 -0.0470048)
(-0.052678 1.13861 -0.0462195)
(-0.0533673 1.13761 -0.0454218)
(-0.0540463 1.13662 -0.0446117)
(-0.0547147 1.13563 -0.0437894)
(-0.0553724 1.13464 -0.0429547)
(-0.0560192 1.13366 -0.0421077)
(-0.0566549 1.13268 -0.0412484)
(-0.0572793 1.1317 -0.0403768)
(-0.0578922 1.13073 -0.039493)
(-0.0584935 1.12976 -0.0385968)
(-0.0590829 1.12879 -0.0376884)
(-0.0596602 1.12783 -0.0367677)
(-0.0602252 1.12688 -0.0358347)
(-0.0607777 1.12593 -0.0348895)
(-0.0613174 1.12498 -0.033932)
(-0.0618441 1.12404 -0.0329623)
(-0.0623576 1.1231 -0.0319803)
(-0.0628575 1.12217 -0.0309862)
(-0.0633437 1.12125 -0.0299798)
(-0.0638158 1.12033 -0.0289613)
(0.0559195 1.12061 -0.04224)
(0.0555096 1.12181 -0.0427773)
(0.0550956 1.123 -0.0433091)
(0.0546777 1.1242 -0.0438356)
(0.0542558 1.1254 -0.0443567)
(0.05383 1.1266 -0.0448725)
(0.0534003 1.12779 -0.045383)
(0.0537152 1.12987 -0.0450098)
(0.0544454 1.13076 -0.0441238)
(0.0551574 1.13165 -0.0432304)
(0.0558514 1.13255 -0.04233)
(0.0565275 1.13346 -0.0414228)
(0.0571859 1.13437 -0.040509)
(0.0578266 1.13529 -0.0395891)
(0.0584497 1.13622 -0.0386631)
(0.0590555 1.13715 -0.0377313)
(0.059644 1.13809 -0.0367941)
(0.0602153 1.13903 -0.0358515)
(0.0607695 1.13998 -0.0349038)
(0.0613067 1.14093 -0.0339513)
(0.0618271 1.14189 -0.0329941)
(0.0623308 1.14285 -0.0320325)
(0.0628178 1.14382 -0.0310665)
(0.0632883 1.14479 -0.0300965)
(0.0637423 1.14576 -0.0291226)
(0.06418 1.14674 -0.0281449)
(0.0646014 1.14772 -0.0271637)
(0.0650066 1.1487 -0.0261791)
(0.0653958 1.14969 -0.0251912)
(0.0657689 1.15068 -0.0242002)
(0.0661262 1.15168 -0.0232063)
(0.0664676 1.15267 -0.0222097)
(0.0667932 1.15367 -0.0212104)
(0.0671031 1.15467 -0.0202086)
(0.0673973 1.15568 -0.0192044)
(0.067676 1.15668 -0.018198)
(0.0679391 1.15769 -0.0171896)
(0.0681868 1.1587 -0.0161792)
(0.0684191 1.15972 -0.0151669)
(0.068636 1.16073 -0.014153)
(0.0688376 1.16174 -0.0131374)
(0.0690239 1.16276 -0.0121204)
(0.069195 1.16378 -0.0111021)
(0.0693509 1.1648 -0.0100826)
(0.0694916 1.16582 -0.00906194)
(0.0696172 1.16684 -0.00804031)
(0.0697277 1.16787 -0.0070178)
(0.0698232 1.16889 -0.00599454)
(0.0699035 1.16991 -0.00497063)
(0.0699688 1.17094 -0.00394619)
(0.0700191 1.17196 -0.00292132)
(0.0700543 1.17299 -0.00189614)
(0.0700746 1.17401 -0.000870753)
(0.0700798 1.17504 0.000154725)
(0.0700701 1.17606 0.00118019)
(0.0700453 1.17709 0.00220552)
(0.0700055 1.17811 0.00323062)
(0.0699507 1.17914 0.00425537)
(0.0698808 1.18016 0.00527967)
(0.0697959 1.18119 0.00630339)
(0.069696 1.18221 0.00732644)
(0.0695809 1.18323 0.00834869)
(0.0694508 1.18425 0.00937004)
(0.0693055 1.18527 0.0103904)
(0.069145 1.18629 0.0114095)
(0.0689693 1.18731 0.0124275)
(0.0687784 1.18833 0.013444)
(0.0685722 1.18934 0.0144591)
(0.0683506 1.19035 0.0154725)
(0.0681137 1.19137 0.0164843)
(0.0678613 1.19238 0.0174941)
(0.0675935 1.19338 0.018502)
(0.0673102 1.19439 0.0195077)
(0.0670112 1.19539 0.0205111)
(0.0666966 1.1964 0.0215122)
(0.0663662 1.19739 0.0225107)
(0.0660201 1.19839 0.0235066)
(0.065658 1.19938 0.0244996)
(0.0652801 1.20037 0.0254896)
(0.064886 1.20136 0.0264765)
(0.0644759 1.20234 0.0274602)
(0.0640496 1.20332 0.0284403)
(0.063607 1.2043 0.0294169)
(0.063148 1.20527 0.0303897)
(0.0626726 1.20624 0.0313585)
(0.0621806 1.20721 0.0323231)
(0.0616719 1.20817 0.0332834)
(0.0611464 1.20912 0.0342393)
(0.060604 1.21007 0.0351903)
(0.0600447 1.21102 0.0361365)
(0.0594682 1.21196 0.0370775)
(0.0588746 1.2129 0.0380131)
(0.0582636 1.21383 0.0389431)
(0.0576351 1.21475 0.0398673)
(0.0569891 1.21567 0.0407854)
(0.0559195 1.21539 0.04224)
(0.0555096 1.21419 0.0427773)
(0.0550956 1.213 0.0433091)
(0.0546777 1.2118 0.0438356)
(0.0542558 1.2106 0.0443567)
(0.05383 1.2094 0.0448725)
(0.0534003 1.20821 0.045383)
(0.0537152 1.20613 0.0450098)
(0.0544454 1.20524 0.0441238)
(0.0551574 1.20435 0.0432304)
(0.0558514 1.20345 0.04233)
(0.0565275 1.20254 0.0414228)
(0.0571859 1.20163 0.040509)
(0.0578266 1.20071 0.0395891)
(0.0584497 1.19978 0.0386631)
(0.0590555 1.19885 0.0377313)
(0.059644 1.19791 0.0367941)
(0.0602153 1.19697 0.0358515)
(0.0607695 1.19602 0.0349038)
(0.0613067 1.19507 0.0339513)
(0.0618271 1.19411 0.0329941)
(0.0623308 1.19315 0.0320325)
(0.0628178 1.19218 0.0310665)
(0.0632883 1.19121 0.0300965)
(0.0637423 1.19024 0.0291226)
(0.06418 1.18926 0.0281449)
(0.0646014 1.18828 0.0271637)
(0.0650066 1.1873 0.0261791)
(0.0653958 1.18631 0.0251912)
(0.0657689 1.18532 0.0242002)
(0.0661262 1.18432 0.0232063)
(0.0664676 1.18333 0.0222097)
(0.0667932 1.18233 0.0212104)
(0.0671031 1.18133 0.0202086)
(0.0673973 1.18032 0.0192044)
(0.067676 1.17932 0.018198)
(0.0679391 1.17831 0.0171896)
(0.0681868 1.1773 0.0161792)
(0.0684191 1.17628 0.0151669)
(0.068636 1.17527 0.014153)
(0.0688376 1.17426 0.0131374)
(0.0690239 1.17324 0.0121204)
(0.069195 1.17222 0.0111021)
(0.0693509 1.1712 0.0100826)
(0.0694916 1.17018 0.00906194)
(0.0696172 1.16916 0.00804031)
(0.0697277 1.16814 0.0070178)
(0.0698232 1.16711 0.00599454)
(0.0699035 1.16609 0.00497063)
(0.0699688 1.16506 0.00394619)
(0.0700191 1.16404 0.00292132)
(0.0700543 1.16301 0.00189614)
(0.0700746 1.16199 0.000870753)
(0.0700798 1.16096 -0.000154725)
(0.0700701 1.15994 -0.00118019)
(0.0700453 1.15891 -0.00220552)
(0.0700055 1.15789 -0.00323062)
(0.0699507 1.15686 -0.00425537)
(0.0698808 1.15584 -0.00527967)
(0.0697959 1.15481 -0.00630339)
(0.069696 1.15379 -0.00732644)
(0.0695809 1.15277 -0.00834869)
(0.0694508 1.15175 -0.00937004)
(0.0693055 1.15073 -0.0103904)
(0.069145 1.14971 -0.0114095)
(0.0689693 1.14869 -0.0124275)
(0.0687784 1.14767 -0.013444)
(0.0685722 1.14666 -0.0144591)
(0.0683506 1.14565 -0.0154725)
(0.0681137 1.14463 -0.0164843)
(0.0678613 1.14362 -0.0174941)
(0.0675935 1.14262 -0.018502)
(0.0673102 1.14161 -0.0195077)
(0.0670112 1.14061 -0.0205111)
(0.0666966 1.13961 -0.0215122)
(0.0663662 1.13861 -0.0225107)
(0.0660201 1.13761 -0.0235066)
(0.065658 1.13662 -0.0244996)
(0.0652801 1.13563 -0.0254896)
(0.064886 1.13464 -0.0264765)
(0.0644759 1.13366 -0.0274602)
(0.0640496 1.13268 -0.0284403)
(0.063607 1.1317 -0.0294169)
(0.063148 1.13073 -0.0303897)
(0.0626726 1.12976 -0.0313585)
(0.0621806 1.12879 -0.0323231)
(0.0616719 1.12783 -0.0332834)
(0.0611464 1.12688 -0.0342393)
(0.060604 1.12593 -0.0351903)
(0.0600447 1.12498 -0.0361365)
(0.0594682 1.12404 -0.0370775)
(0.0588746 1.1231 -0.0380131)
(0.0582636 1.12217 -0.0389431)
(0.0576351 1.12125 -0.0398673)
(0.0569891 1.12033 -0.0407854)
(-0.197065 0.472067 0.00486667)
(-0.19563 0.472067 0.00486667)
(-0.194195 0.472067 0.00486667)
(-0.19276 0.472067 0.00486667)
(-0.191325 0.472067 0.00486667)
(-0.18989 0.472067 0.00486667)
(-0.188454 0.472067 0.00486667)
(-0.187019 0.472067 0.00486667)
(-0.185584 0.472067 0.00486667)
(-0.184149 0.472067 0.00486667)
(-0.182714 0.472067 0.00486667)
(-0.181279 0.472067 0.00486667)
(-0.179844 0.472067 0.00486667)
(-0.178409 0.472067 0.00486667)
(-0.176974 0.472067 0.00486667)
(-0.175538 0.472067 0.00486667)
(-0.174103 0.472067 0.00486667)
(-0.172668 0.472067 0.00486667)
(-0.171233 0.472067 0.00486667)
(-0.169798 0.472067 0.00486667)
(-0.168363 0.472067 0.00486667)
(-0.166928 0.472067 0.00486667)
(-0.165493 0.472067 0.00486667)
(-0.164057 0.472067 0.00486667)
(-0.162622 0.472067 0.00486667)
(-0.161187 0.472067 0.00486667)
(-0.159752 0.472067 0.00486667)
(-0.158317 0.472067 0.00486667)
(-0.156882 0.472067 0.00486667)
(-0.155447 0.472067 0.00486667)
(-0.154012 0.472067 0.00486667)
(-0.152577 0.472067 0.00486667)
(-0.151141 0.472067 0.00486667)
(-0.149706 0.472067 0.00486667)
(-0.148271 0.472067 0.00486667)
(-0.146836 0.472067 0.00486667)
(-0.145401 0.472067 0.00486667)
(-0.143966 0.472067 0.00486667)
(-0.142531 0.472067 0.00486667)
(-0.141096 0.472067 0.00486667)
(-0.139661 0.472067 0.00486667)
(-0.138225 0.472067 0.00486667)
(-0.13679 0.472067 0.00486667)
(-0.135355 0.472067 0.00486667)
(-0.13392 0.472067 0.00486667)
(-0.132485 0.472067 0.00486667)
(-0.13105 0.472067 0.00486667)
(-0.129615 0.472067 0.00486667)
(-0.12818 0.472067 0.00486667)
(-0.126744 0.472067 0.00486667)
(-0.125309 0.472067 0.00486667)
(-0.123874 0.472067 0.00486667)
(-0.122439 0.472067 0.00486667)
(-0.121004 0.472067 0.00486667)
(-0.119569 0.472067 0.00486667)
(-0.118134 0.472067 0.00486667)
(-0.116748 0.472067 0.00347668)
(-0.116781 0.472067 0.00208621)
(-0.116798 0.472067 0.000695435)
(-0.116798 0.472067 -0.000695435)
(-0.116781 0.472067 -0.00208621)
(-0.116748 0.472067 -0.00347668)
(-0.118134 0.472067 -0.00486667)
(-0.119569 0.472067 -0.00486667)
(-0.121004 0.472067 -0.00486667)
(-0.122439 0.472067 -0.00486667)
(-0.123874 0.472067 -0.00486667)
(-0.125309 0.472067 -0.00486667)
(-0.126744 0.472067 -0.00486667)
(-0.12818 0.472067 -0.00486667)
(-0.129615 0.472067 -0.00486667)
(-0.13105 0.472067 -0.00486667)
(-0.132485 0.472067 -0.00486667)
(-0.13392 0.472067 -0.00486667)
(-0.135355 0.472067 -0.00486667)
(-0.13679 0.472067 -0.00486667)
(-0.138225 0.472067 -0.00486667)
(-0.139661 0.472067 -0.00486667)
(-0.141096 0.472067 -0.00486667)
(-0.142531 0.472067 -0.00486667)
(-0.143966 0.472067 -0.00486667)
(-0.145401 0.472067 -0.00486667)
(-0.146836 0.472067 -0.00486667)
(-0.148271 0.472067 -0.00486667)
(-0.149706 0.472067 -0.00486667)
(-0.151141 0.472067 -0.00486667)
(-0.152577 0.472067 -0.00486667)
(-0.154012 0.472067 -0.00486667)
(-0.155447 0.472067 -0.00486667)
(-0.156882 0.472067 -0.00486667)
(-0.158317 0.472067 -0.00486667)
(-0.159752 0.472067 -0.00486667)
(-0.161187 0.472067 -0.00486667)
(-0.162622 0.472067 -0.00486667)
(-0.164057 0.472067 -0.00486667)
(-0.165493 0.472067 -0.00486667)
(-0.166928 0.472067 -0.00486667)
(-0.168363 0.472067 -0.00486667)
(-0.169798 0.472067 -0.00486667)
(-0.171233 0.472067 -0.00486667)
(-0.172668 0.472067 -0.00486667)
(-0.174103 0.472067 -0.00486667)
(-0.175538 0.472067 -0.00486667)
(-0.176974 0.472067 -0.00486667)
(-0.178409 0.472067 -0.00486667)
(-0.179844 0.472067 -0.00486667)
(-0.181279 0.472067 -0.00486667)
(-0.182714 0.472067 -0.00486667)
(-0.184149 0.472067 -0.00486667)
(-0.185584 0.472067 -0.00486667)
(-0.187019 0.472067 -0.00486667)
(-0.188454 0.472067 -0.00486667)
(-0.18989 0.472067 -0.00486667)
(-0.191325 0.472067 -0.00486667)
(-0.19276 0.472067 -0.00486667)
(-0.194195 0.472067 -0.00486667)
(-0.19563 0.472067 -0.00486667)
(-0.197065 0.472067 -0.00486667)
(-0.102747 0.472067 -0.16823)
(-0.10203 0.472067 -0.166987)
(-0.101312 0.472067 -0.165744)
(-0.100595 0.472067 -0.164502)
(-0.099877 0.472067 -0.163259)
(-0.0991595 0.472067 -0.162016)
(-0.0984419 0.472067 -0.160773)
(-0.0977244 0.472067 -0.15953)
(-0.0970068 0.472067 -0.158287)
(-0.0962892 0.472067 -0.157045)
(-0.0955717 0.472067 -0.155802)
(-0.0948541 0.472067 -0.154559)
(-0.0941366 0.472067 -0.153316)
(-0.093419 0.472067 -0.152073)
(-0.0927014 0.472067 -0.15083)
(-0.0919839 0.472067 -0.149587)
(-0.0912663 0.472067 -0.148345)
(-0.0905488 0.472067 -0.147102)
(-0.0898312 0.472067 -0.145859)
(-0.0891136 0.472067 -0.144616)
(-0.0883961 0.472067 -0.143373)
(-0.0876785 0.472067 -0.14213)
(-0.086961 0.472067 -0.140887)
(-0.0862434 0.472067 -0.139645)
(-0.0855258 0.472067 -0.138402)
(-0.0848083 0.472067 -0.137159)
(-0.0840907 0.472067 -0.135916)
(-0.0833732 0.472067 -0.134673)
(-0.0826556 0.472067 -0.13343)
(-0.0819381 0.472067 -0.132188)
(-0.0812205 0.472067 -0.130945)
(-0.0805029 0.472067 -0.129702)
(-0.0797854 0.472067 -0.128459)
(-0.0790678 0.472067 -0.127216)
(-0.0783503 0.472067 -0.125973)
(-0.0776327 0.472067 -0.12473)
(-0.0769151 0.472067 -0.123488)
(-0.0761976 0.472067 -0.122245)
(-0.07548 0.472067 -0.121002)
(-0.0747624 0.472067 -0.119759)
(-0.0740449 0.472067 -0.118516)
(-0.0733273 0.472067 -0.117273)
(-0.0726098 0.472067 -0.11603)
(-0.0718922 0.472067 -0.114788)
(-0.0711747 0.472067 -0.113545)
(-0.0704571 0.472067 -0.112302)
(-0.0697395 0.472067 -0.111059)
(-0.069022 0.472067 -0.109816)
(-0.0683044 0.472067 -0.108573)
(-0.0675869 0.472067 -0.107331)
(-0.0668693 0.472067 -0.106088)
(-0.0661517 0.472067 -0.104845)
(-0.0654342 0.472067 -0.103602)
(-0.0647166 0.472067 -0.102359)
(-0.0639991 0.472067 -0.101116)
(-0.0632815 0.472067 -0.0998734)
(-0.061385 0.472067 -0.0993686)
(-0.0601974 0.472067 -0.100093)
(-0.0590012 0.472067 -0.100802)
(-0.0577967 0.472067 -0.101498)
(-0.056584 0.472067 -0.102179)
(-0.0553632 0.472067 -0.102845)
(-0.0548522 0.472067 -0.10474)
(-0.0555697 0.472067 -0.105983)
(-0.0562873 0.472067 -0.107226)
(-0.0570049 0.472067 -0.108469)
(-0.0577224 0.472067 -0.109711)
(-0.05844 0.472067 -0.110954)
(-0.0591575 0.472067 -0.112197)
(-0.0598751 0.472067 -0.11344)
(-0.0605927 0.472067 -0.114683)
(-0.0613102 0.472067 -0.115926)
(-0.0620278 0.472067 -0.117169)
(-0.0627453 0.472067 -0.118411)
(-0.0634629 0.472067 -0.119654)
(-0.0641805 0.472067 -0.120897)
(-0.064898 0.472067 -0.12214)
(-0.0656156 0.472067 -0.123383)
(-0.0663331 0.472067 -0.124626)
(-0.0670507 0.472067 -0.125868)
(-0.0677683 0.472067 -0.127111)
(-0.0684858 0.472067 -0.128354)
(-0.0692034 0.472067 -0.129597)
(-0.0699209 0.472067 -0.13084)
(-0.0706385 0.472067 -0.132083)
(-0.0713561 0.472067 -0.133326)
(-0.0720736 0.472067 -0.134568)
(-0.0727912 0.472067 -0.135811)
(-0.0735087 0.472067 -0.137054)
(-0.0742263 0.472067 -0.138297)
(-0.0749438 0.472067 -0.13954)
(-0.0756614 0.472067 -0.140783)
(-0.076379 0.472067 -0.142026)
(-0.0770965 0.472067 -0.143268)
(-0.0778141 0.472067 -0.144511)
(-0.0785317 0.472067 -0.145754)
(-0.0792492 0.472067 -0.146997)
(-0.0799668 0.472067 -0.14824)
(-0.0806843 0.472067 -0.149483)
(-0.0814019 0.472067 -0.150725)
(-0.0821194 0.472067 -0.151968)
(-0.082837 0.472067 -0.153211)
(-0.0835546 0.472067 -0.154454)
(-0.0842721 0.472067 -0.155697)
(-0.0849897 0.472067 -0.15694)
(-0.0857072 0.472067 -0.158183)
(-0.0864248 0.472067 -0.159425)
(-0.0871424 0.472067 -0.160668)
(-0.0878599 0.472067 -0.161911)
(-0.0885775 0.472067 -0.163154)
(-0.089295 0.472067 -0.164397)
(-0.0900126 0.472067 -0.16564)
(-0.0907302 0.472067 -0.166883)
(-0.0914477 0.472067 -0.168125)
(-0.0921653 0.472067 -0.169368)
(-0.0928828 0.472067 -0.170611)
(-0.0936004 0.472067 -0.171854)
(-0.094318 0.472067 -0.173097)
(0.094318 0.472067 -0.173097)
(0.0936004 0.472067 -0.171854)
(0.0928828 0.472067 -0.170611)