/*--------------------------------*- C++ -*----------------------------------*\
  =========                 |
  \\      /  F ield         | OpenFOAM: The Open Source CFD Toolbox
   \\    /   O peration     | Website:  https://openfoam.org
    \\  /    A nd           | Version:  10
     \\/     M anipulation  |
\*---------------------------------------------------------------------------*/
FoamFile
{
    format      ascii;
    class       featureEdgeMesh;
    location    "constant/triSurface";
    object      tankwall.eMesh;
}
// * * * * * * * * * * * * * * * * * * * * * * * * * * * * * * * * * * * * * //


// points:

5028
(
(0.00145958 2.336 0.583998)
(-1.43039e-16 2.336 0.584)
(-0.00145958 2.336 0.583998)
(-0.00291914 2.336 0.583993)
(-0.00437869 2.336 0.583984)
(-0.00583822 2.336 0.583971)
(-0.0072977 2.336 0.583954)
(-0.00875714 2.336 0.583934)
(-0.0102165 2.336 0.583911)
(-0.0116758 2.336 0.583883)
(-0.0131351 2.336 0.583852)
(-0.0145943 2.336 0.583818)
(-0.0160533 2.336 0.583779)
(-0.0175123 2.336 0.583737)
(-0.0189712 2.336 0.583692)
(-0.0204299 2.336 0.583642)
(-0.0218886 2.336 0.58359)
(-0.023347 2.336 0.583533)
(-0.0248054 2.336 0.583473)
(-0.0262635 2.336 0.583409)
(-0.0277216 2.336 0.583342)
(-0.0291794 2.336 0.583271)
(-0.0306371 2.336 0.583196)
(-0.0320945 2.336 0.583117)
(-0.0335518 2.336 0.583035)
(-0.0350089 2.336 0.58295)
(-0.0364657 2.336 0.58286)
(-0.0379223 2.336 0.582767)
(-0.0393787 2.336 0.582671)
(-0.0408349 2.336 0.582571)
(-0.0422907 2.336 0.582467)
(-0.0437463 2.336 0.582359)
(-0.0452017 2.336 0.582248)
(-0.0466567 2.336 0.582133)
(-0.0481115 2.336 0.582015)
(-0.049566 2.336 0.581893)
(-0.0510201 2.336 0.581767)
(-0.052474 2.336 0.581638)
(-0.0539275 2.336 0.581505)
(-0.0553806 2.336 0.581368)
(-0.0568335 2.336 0.581228)
(-0.0582859 2.336 0.581084)
(-0.059738 2.336 0.580937)
(-0.0611898 2.336 0.580786)
(-0.0626411 2.336 0.580631)
(-0.0640921 2.336 0.580472)
(-0.0655427 2.336 0.58031)
(-0.0669928 2.336 0.580145)
(-0.0684425 2.336 0.579975)
(-0.0698918 2.336 0.579803)
(-0.0713407 2.336 0.579626)
(-0.0727891 2.336 0.579446)
(-0.0742371 2.336 0.579262)
(-0.0756846 2.336 0.579075)
(-0.0771316 2.336 0.578884)
(-0.0785782 2.336 0.578689)
(-0.0800242 2.336 0.578491)
(-0.0814698 2.336 0.578289)
(-0.0829149 2.336 0.578084)
(-0.0843594 2.336 0.577875)
(-0.0858034 2.336 0.577662)
(-0.0872469 2.336 0.577446)
(-0.0886898 2.336 0.577226)
(-0.0901322 2.336 0.577003)
(-0.091574 2.336 0.576776)
(-0.0930152 2.336 0.576545)
(-0.0944559 2.336 0.576311)
(-0.0958959 2.336 0.576073)
(-0.0973354 2.336 0.575831)
(-0.0987742 2.336 0.575586)
(-0.100212 2.336 0.575338)
(-0.10165 2.336 0.575085)
(-0.103087 2.336 0.57483)
(-0.104523 2.336 0.57457)
(-0.105959 2.336 0.574307)
(-0.107394 2.336 0.57404)
(-0.108828 2.336 0.57377)
(-0.110262 2.336 0.573497)
(-0.111695 2.336 0.573219)
(-0.113127 2.336 0.572938)
(-0.114559 2.336 0.572654)
(-0.11599 2.336 0.572366)
(-0.11742 2.336 0.572074)
(-0.118849 2.336 0.571779)
(-0.120278 2.336 0.57148)
(-0.121706 2.336 0.571177)
(-0.123133 2.336 0.570871)
(-0.124559 2.336 0.570562)
(-0.125985 2.336 0.570249)
(-0.12741 2.336 0.569932)
(-0.128834 2.336 0.569612)
(-0.130257 2.336 0.569288)
(-0.13168 2.336 0.568961)
(-0.133101 2.336 0.56863)
(-0.134522 2.336 0.568296)
(-0.135942 2.336 0.567958)
(-0.137361 2.336 0.567616)
(-0.138779 2.336 0.567271)
(-0.140196 2.336 0.566922)
(-0.141613 2.336 0.56657)
(-0.143028 2.336 0.566215)
(-0.144443 2.336 0.565855)
(-0.145857 2.336 0.565493)
(-0.14727 2.336 0.565126)
(-0.148682 2.336 0.564756)
(-0.150093 2.336 0.564383)
(-0.151503 2.336 0.564006)
(-0.152912 2.336 0.563626)
(-0.15432 2.336 0.563242)
(-0.155727 2.336 0.562854)
(-0.157134 2.336 0.562463)
(-0.158539 2.336 0.562069)
(-0.159943 2.336 0.561671)
(-0.161346 2.336 0.561269)
(-0.162749 2.336 0.560864)
(-0.16415 2.336 0.560456)
(-0.16555 2.336 0.560044)
(-0.166949 2.336 0.559628)
(-0.168347 2.336 0.559209)
(-0.169745 2.336 0.558787)
(-0.171141 2.336 0.558361)
(-0.172535 2.336 0.557931)
(-0.173929 2.336 0.557499)
(-0.175322 2.336 0.557062)
(-0.176714 2.336 0.556622)
(-0.178105 2.336 0.556179)
(-0.179494 2.336 0.555732)
(-0.180882 2.336 0.555282)
(-0.18227 2.336 0.554828)
(-0.183656 2.336 0.554371)
(-0.185041 2.336 0.55391)
(-0.186424 2.336 0.553446)
(-0.187807 2.336 0.552978)
(-0.189188 2.336 0.552507)
(-0.190569 2.336 0.552032)
(-0.191948 2.336 0.551554)
(-0.193326 2.336 0.551073)
(-0.194702 2.336 0.550588)
(-0.196078 2.336 0.550099)
(-0.197452 2.336 0.549608)
(-0.198825 2.336 0.549112)
(-0.200197 2.336 0.548614)
(-0.201567 2.336 0.548112)
(-0.202937 2.336 0.547606)
(-0.204305 2.336 0.547097)
(-0.205671 2.336 0.546585)
(-0.207037 2.336 0.546069)
(-0.208401 2.336 0.54555)
(-0.209764 2.336 0.545028)
(-0.211125 2.336 0.544502)
(-0.212485 2.336 0.543972)
(-0.213844 2.336 0.54344)
(-0.215202 2.336 0.542903)
(-0.216558 2.336 0.542364)
(-0.217913 2.336 0.541821)
(-0.219266 2.336 0.541275)
(-0.220619 2.336 0.540725)
(-0.221969 2.336 0.540172)
(-0.223319 2.336 0.539615)
(-0.224667 2.336 0.539056)
(-0.226013 2.336 0.538492)
(-0.227358 2.336 0.537926)
(-0.228702 2.336 0.537356)
(-0.230044 2.336 0.536783)
(-0.231385 2.336 0.536206)
(-0.232724 2.336 0.535626)
(-0.234062 2.336 0.535043)
(-0.235399 2.336 0.534456)
(-0.236734 2.336 0.533866)
(-0.238067 2.336 0.533273)
(-0.239399 2.336 0.532676)
(-0.24073 2.336 0.532076)
(-0.242059 2.336 0.531473)
(-0.243387 2.336 0.530866)
(-0.244713 2.336 0.530256)
(-0.246037 2.336 0.529643)
(-0.24736 2.336 0.529026)
(-0.248682 2.336 0.528407)
(-0.250001 2.336 0.527783)
(-0.25132 2.336 0.527157)
(-0.252636 2.336 0.526527)
(-0.253951 2.336 0.525894)
(-0.255265 2.336 0.525258)
(-0.256577 2.336 0.524618)
(-0.257887 2.336 0.523975)
(-0.259196 2.336 0.523329)
(-0.260503 2.336 0.52268)
(-0.261809 2.336 0.522027)
(-0.263113 2.336 0.521371)
(-0.264415 2.336 0.520712)
(-0.265716 2.336 0.520049)
(-0.267014 2.336 0.519384)
(-0.268312 2.336 0.518715)
(-0.269607 2.336 0.518042)
(-0.270901 2.336 0.517367)
(-0.272193 2.336 0.516688)
(-0.273484 2.336 0.516006)
(-0.274773 2.336 0.515321)
(-0.27606 2.336 0.514633)
(-0.277345 2.336 0.513941)
(-0.278629 2.336 0.513247)
(-0.279911 2.336 0.512549)
(-0.281191 2.336 0.511847)
(-0.282469 2.336 0.511143)
(-0.283746 2.336 0.510436)
(-0.285021 2.336 0.509725)
(-0.286294 2.336 0.509011)
(-0.287565 2.336 0.508294)
(-0.288834 2.336 0.507573)
(-0.290102 2.336 0.50685)
(-0.291368 2.336 0.506123)
(-0.292632 2.336 0.505394)
(-0.293894 2.336 0.504661)
(-0.295154 2.336 0.503924)
(-0.296413 2.336 0.503185)
(-0.29767 2.336 0.502443)
(-0.298924 2.336 0.501697)
(-0.300177 2.336 0.500949)
(-0.301428 2.336 0.500197)
(-0.302678 2.336 0.499442)
(-0.303925 2.336 0.498684)
(-0.30517 2.336 0.497923)
(-0.306414 2.336 0.497158)
(-0.307655 2.336 0.496391)
(-0.308895 2.336 0.495621)
(-0.310133 2.336 0.494847)
(-0.311368 2.336 0.494071)
(-0.312602 2.336 0.493291)
(-0.313834 2.336 0.492508)
(-0.315064 2.336 0.491722)
(-0.316292 2.336 0.490933)
(-0.317518 2.336 0.490141)
(-0.318742 2.336 0.489346)
(-0.319964 2.336 0.488548)
(-0.321184 2.336 0.487747)
(-0.322402 2.336 0.486942)
(-0.323618 2.336 0.486135)
(-0.324832 2.336 0.485325)
(-0.326044 2.336 0.484511)
(-0.327254 2.336 0.483695)
(-0.328462 2.336 0.482875)
(-0.329668 2.336 0.482053)
(-0.330871 2.336 0.481228)
(-0.332073 2.336 0.480399)
(-0.333273 2.336 0.479568)
(-0.33447 2.336 0.478733)
(-0.335666 2.336 0.477896)
(-0.336859 2.336 0.477055)
(-0.33805 2.336 0.476212)
(-0.339239 2.336 0.475366)
(-0.340427 2.336 0.474516)
(-0.341611 2.336 0.473664)
(-0.342794 2.336 0.472809)
(-0.343975 2.336 0.471951)
(-0.345153 2.336 0.47109)
(-0.34633 2.336 0.470225)
(-0.347504 2.336 0.469358)
(-0.348676 2.336 0.468488)
(-0.349845 2.336 0.467615)
(-0.351013 2.336 0.46674)
(-0.352178 2.336 0.465861)
(-0.353342 2.336 0.464979)
(-0.354503 2.336 0.464095)
(-0.355661 2.336 0.463207)
(-0.356818 2.336 0.462317)
(-0.357972 2.336 0.461424)
(-0.359124 2.336 0.460528)
(-0.360274 2.336 0.459629)
(-0.361422 2.336 0.458727)
(-0.362567 2.336 0.457822)
(-0.36371 2.336 0.456914)
(-0.364851 2.336 0.456004)
(-0.36599 2.336 0.455091)
(-0.367126 2.336 0.454175)
(-0.36826 2.336 0.453256)
(-0.369392 2.336 0.452334)
(-0.370521 2.336 0.451409)
(-0.371648 2.336 0.450482)
(-0.372773 2.336 0.449551)
(-0.373895 2.336 0.448618)
(-0.375015 2.336 0.447682)
(-0.376133 2.336 0.446744)
(-0.377248 2.336 0.445802)
(-0.378361 2.336 0.444858)
(-0.379472 2.336 0.443911)
(-0.38058 2.336 0.442961)
(-0.381686 2.336 0.442009)
(-0.382789 2.336 0.441054)
(-0.383891 2.336 0.440095)
(-0.384989 2.336 0.439135)
(-0.386086 2.336 0.438171)
(-0.38718 2.336 0.437205)
(-0.388271 2.336 0.436236)
(-0.38936 2.336 0.435264)
(-0.390447 2.336 0.434289)
(-0.391531 2.336 0.433312)
(-0.392613 2.336 0.432332)
(-0.393692 2.336 0.43135)
(-0.394769 2.336 0.430364)
(-0.395843 2.336 0.429377)
(-0.396915 2.336 0.428386)
(-0.397985 2.336 0.427393)
(-0.399051 2.336 0.426396)
(-0.400116 2.336 0.425398)
(-0.401178 2.336 0.424397)
(-0.402237 2.336 0.423393)
(-0.403294 2.336 0.422386)
(-0.404348 2.336 0.421377)
(-0.4054 2.336 0.420365)
(-0.40645 2.336 0.41935)
(-0.407497 2.336 0.418333)
(-0.408541 2.336 0.417313)
(-0.409582 2.336 0.416291)
(-0.410622 2.336 0.415266)
(-0.411658 2.336 0.414238)
(-0.412692 2.336 0.413208)
(-0.413724 2.336 0.412176)
(-0.414753 2.336 0.41114)
(-0.415779 2.336 0.410102)
(-0.416802 2.336 0.409062)
(-0.417823 2.336 0.408019)
(-0.418842 2.336 0.406974)
(-0.419858 2.336 0.405925)
(-0.420871 2.336 0.404875)
(-0.421882 2.336 0.403822)
(-0.42289 2.336 0.402766)
(-0.423895 2.336 0.401708)
(-0.424897 2.336 0.400647)
(-0.425898 2.336 0.399584)
(-0.426895 2.336 0.398518)
(-0.427889 2.336 0.39745)
(-0.428881 2.336 0.396379)
(-0.429871 2.336 0.395306)
(-0.430858 2.336 0.394231)
(-0.431841 2.336 0.393153)
(-0.432823 2.336 0.392072)
(-0.433801 2.336 0.390989)
(-0.434777 2.336 0.389904)
(-0.43575 2.336 0.388816)
(-0.43672 2.336 0.387726)
(-0.437688 2.336 0.386633)
(-0.438653 2.336 0.385538)
(-0.439615 2.336 0.38444)
(-0.440575 2.336 0.38334)
(-0.441532 2.336 0.382238)
(-0.442485 2.336 0.381133)
(-0.443437 2.336 0.380026)
(-0.444385 2.336 0.378917)
(-0.445331 2.336 0.377805)
(-0.446274 2.336 0.376691)
(-0.447214 2.336 0.375574)
(-0.448151 2.336 0.374455)
(-0.449085 2.336 0.373334)
(-0.450017 2.336 0.372211)
(-0.450946 2.336 0.371085)
(-0.451872 2.336 0.369956)
(-0.452795 2.336 0.368826)
(-0.453715 2.336 0.367693)
(-0.454633 2.336 0.366558)
(-0.455548 2.336 0.365421)
(-0.45646 2.336 0.364281)
(-0.457369 2.336 0.363139)
(-0.458275 2.336 0.361995)
(-0.459178 2.336 0.360848)
(-0.460078 2.336 0.3597)
(-0.460976 2.336 0.358549)
(-0.461871 2.336 0.357395)
(-0.462763 2.336 0.35624)
(-0.463651 2.336 0.355082)
(-0.464537 2.336 0.353922)
(-0.46542 2.336 0.35276)
(-0.466301 2.336 0.351596)
(-0.467178 2.336 0.350429)
(-0.468052 2.336 0.349261)
(-0.468924 2.336 0.34809)
(-0.469792 2.336 0.346917)
(-0.470658 2.336 0.345742)
(-0.47152 2.336 0.344564)
(-0.47238 2.336 0.343385)
(-0.473237 2.336 0.342203)
(-0.474091 2.336 0.341019)
(-0.474941 2.336 0.339833)
(-0.475789 2.336 0.338645)
(-0.476634 2.336 0.337455)
(-0.477476 2.336 0.336263)
(-0.478315 2.336 0.335068)
(-0.479151 2.336 0.333872)
(-0.479984 2.336 0.332673)
(-0.480814 2.336 0.331473)
(-0.481641 2.336 0.33027)
(-0.482465 2.336 0.329065)
(-0.483286 2.336 0.327858)
(-0.484104 2.336 0.326649)
(-0.484918 2.336 0.325438)
(-0.48573 2.336 0.324225)
(-0.486539 2.336 0.32301)
(-0.487345 2.336 0.321793)
(-0.488148 2.336 0.320574)
(-0.488947 2.336 0.319353)
(-0.489744 2.336 0.31813)
(-0.490537 2.336 0.316905)
(-0.491328 2.336 0.315678)
(-0.492115 2.336 0.314449)
(-0.4929 2.336 0.313219)
(-0.493681 2.336 0.311986)
(-0.494459 2.336 0.310751)
(-0.495234 2.336 0.309514)
(-0.496006 2.336 0.308275)
(-0.496775 2.336 0.307035)
(-0.497541 2.336 0.305792)
(-0.498304 2.336 0.304548)
(-0.499063 2.336 0.303302)
(-0.49982 2.336 0.302053)
(-0.500573 2.336 0.300803)
(-0.501323 2.336 0.299551)
(-0.50207 2.336 0.298297)
(-0.502814 2.336 0.297042)
(-0.503555 2.336 0.295784)
(-0.504293 2.336 0.294524)
(-0.505027 2.336 0.293263)
(-0.505759 2.336 0.292)
(-0.506487 2.336 0.290735)
(-0.507212 2.336 0.289468)
(-0.507934 2.336 0.2882)
(-0.508653 2.336 0.286929)
(-0.509368 2.336 0.285657)
(-0.510081 2.336 0.284383)
(-0.51079 2.336 0.283107)
(-0.511496 2.336 0.28183)
(-0.512198 2.336 0.280551)
(-0.512898 2.336 0.27927)
(-0.513594 2.336 0.277987)
(-0.514288 2.336 0.276703)
(-0.514978 2.336 0.275416)
(-0.515664 2.336 0.274128)
(-0.516348 2.336 0.272839)
(-0.517028 2.336 0.271547)
(-0.517705 2.336 0.270254)
(-0.518379 2.336 0.26896)
(-0.51905 2.336 0.267663)
(-0.519717 2.336 0.266365)
(-0.520381 2.336 0.265065)
(-0.521042 2.336 0.263764)
(-0.521699 2.336 0.262461)
(-0.522354 2.336 0.261156)
(-0.523005 2.336 0.25985)
(-0.523653 2.336 0.258542)
(-0.524297 2.336 0.257232)
(-0.524938 2.336 0.255921)
(-0.525576 2.336 0.254609)
(-0.526211 2.336 0.253294)
(-0.526842 2.336 0.251978)
(-0.527471 2.336 0.250661)
(-0.528095 2.336 0.249342)
(-0.528717 2.336 0.248021)
(-0.529335 2.336 0.246699)
(-0.52995 2.336 0.245375)
(-0.530562 2.336 0.24405)
(-0.53117 2.336 0.242723)
(-0.531775 2.336 0.241395)
(-0.532377 2.336 0.240065)
(-0.532975 2.336 0.238734)
(-0.53357 2.336 0.237401)
(-0.534162 2.336 0.236067)
(-0.53475 2.336 0.234731)
(-0.535335 2.336 0.233394)
(-0.535917 2.336 0.232055)
(-0.536495 2.336 0.230715)
(-0.53707 2.336 0.229373)
(-0.537641 2.336 0.22803)
(-0.53821 2.336 0.226686)
(-0.538774 2.336 0.22534)
(-0.539336 2.336 0.223993)
(-0.539894 2.336 0.222644)
(-0.540449 2.336 0.221294)
(-0.541 2.336 0.219943)
(-0.541548 2.336 0.21859)
(-0.542093 2.336 0.217236)
(-0.542634 2.336 0.21588)
(-0.543172 2.336 0.214523)
(-0.543706 2.336 0.213165)
(-0.544237 2.336 0.211805)
(-0.544765 2.336 0.210445)
(-0.545289 2.336 0.209082)
(-0.54581 2.336 0.207719)
(-0.546328 2.336 0.206354)
(-0.546842 2.336 0.204988)
(-0.547352 2.336 0.203621)
(-0.547859 2.336 0.202252)
(-0.548363 2.336 0.200882)
(-0.548864 2.336 0.199511)
(-0.549361 2.336 0.198139)
(-0.549854 2.336 0.196765)
(-0.550344 2.336 0.19539)
(-0.550831 2.336 0.194014)
(-0.551314 2.336 0.192637)
(-0.551794 2.336 0.191259)
(-0.55227 2.336 0.189879)
(-0.552743 2.336 0.188498)
(-0.553212 2.336 0.187116)
(-0.553678 2.336 0.185733)
(-0.554141 2.336 0.184348)
(-0.5546 2.336 0.182963)
(-0.555055 2.336 0.181576)
(-0.555507 2.336 0.180188)
(-0.555956 2.336 0.178799)
(-0.556401 2.336 0.177409)
(-0.556843 2.336 0.176018)
(-0.557281 2.336 0.174626)
(-0.557715 2.336 0.173233)
(-0.558147 2.336 0.171838)
(-0.558574 2.336 0.170443)
(-0.558999 2.336 0.169046)
(-0.559419 2.336 0.167648)
(-0.559837 2.336 0.16625)
(-0.56025 2.336 0.16485)
(-0.560661 2.336 0.163449)
(-0.561067 2.336 0.162048)
(-0.561471 2.336 0.160645)
(-0.56187 2.336 0.159241)
(-0.562267 2.336 0.157836)
(-0.562659 2.336 0.15643)
(-0.563048 2.336 0.155024)
(-0.563434 2.336 0.153616)
(-0.563816 2.336 0.152207)
(-0.564195 2.336 0.150798)
(-0.56457 2.336 0.149387)
(-0.564942 2.336 0.147976)
(-0.56531 2.336 0.146563)
(-0.565674 2.336 0.14515)
(-0.566035 2.336 0.143736)
(-0.566393 2.336 0.142321)
(-0.566747 2.336 0.140905)
(-0.567097 2.336 0.139488)
(-0.567444 2.336 0.13807)
(-0.567787 2.336 0.136651)
(-0.568127 2.336 0.135232)
(-0.568463 2.336 0.133812)
(-0.568796 2.336 0.13239)
(-0.569125 2.336 0.130968)
(-0.569451 2.336 0.129546)
(-0.569772 2.336 0.128122)
(-0.570091 2.336 0.126698)
(-0.570406 2.336 0.125272)
(-0.570717 2.336 0.123846)
(-0.571025 2.336 0.12242)
(-0.571329 2.336 0.120992)
(-0.57163 2.336 0.119564)
(-0.571927 2.336 0.118135)
(-0.57222 2.336 0.116705)
(-0.57251 2.336 0.115274)
(-0.572796 2.336 0.113843)
(-0.573079 2.336 0.112411)
(-0.573358 2.336 0.110979)
(-0.573634 2.336 0.109545)
(-0.573906 2.336 0.108111)
(-0.574174 2.336 0.106677)
(-0.574439 2.336 0.105241)
(-0.5747 2.336 0.103805)
(-0.574958 2.336 0.102369)
(-0.575212 2.336 0.100931)
(-0.575463 2.336 0.0994934)
(-0.575709 2.336 0.0980549)
(-0.575953 2.336 0.0966157)
(-0.576192 2.336 0.095176)
(-0.576428 2.336 0.0937356)
(-0.576661 2.336 0.0922946)
(-0.57689 2.336 0.0908531)
(-0.577115 2.336 0.089411)
(-0.577337 2.336 0.0879684)
(-0.577555 2.336 0.0865252)
(-0.577769 2.336 0.0850815)
(-0.57798 2.336 0.0836372)
(-0.578187 2.336 0.0821924)
(-0.578391 2.336 0.0807471)
(-0.578591 2.336 0.0793013)
(-0.578787 2.336 0.077855)
(-0.57898 2.336 0.0764082)
(-0.579169 2.336 0.0749609)
(-0.579355 2.336 0.0735132)
(-0.579537 2.336 0.072065)
(-0.579715 2.336 0.0706163)
(-0.57989 2.336 0.0691672)
(-0.580061 2.336 0.0677177)
(-0.580228 2.336 0.0662678)
(-0.580392 2.336 0.0648174)
(-0.580552 2.336 0.0633667)
(-0.580709 2.336 0.0619155)
(-0.580862 2.336 0.060464)
(-0.581011 2.336 0.059012)
(-0.581156 2.336 0.0575598)
(-0.581298 2.336 0.0561071)
(-0.581437 2.336 0.0546541)
(-0.581572 2.336 0.0532008)
(-0.581703 2.336 0.0517471)
(-0.58183 2.336 0.0502931)
(-0.581954 2.336 0.0488388)
(-0.582075 2.336 0.0473842)
(-0.582191 2.336 0.0459292)
(-0.582304 2.336 0.044474)
(-0.582413 2.336 0.0430186)
(-0.582519 2.336 0.0415628)
(-0.582621 2.336 0.0401068)
(-0.58272 2.336 0.0386506)
(-0.582814 2.336 0.0371941)
(-0.582905 2.336 0.0357373)
(-0.582993 2.336 0.0342804)
(-0.583077 2.336 0.0328232)
(-0.583157 2.336 0.0313658)
(-0.583234 2.336 0.0299083)
(-0.583307 2.336 0.0284505)
(-0.583376 2.336 0.0269926)
(-0.583441 2.336 0.0255345)
(-0.583503 2.336 0.0240762)
(-0.583562 2.336 0.0226178)
(-0.583617 2.336 0.0211593)
(-0.583668 2.336 0.0197006)
(-0.583715 2.336 0.0182418)
(-0.583759 2.336 0.0167828)
(-0.583799 2.336 0.0153238)
(-0.583835 2.336 0.0138647)
(-0.583868 2.336 0.0124055)
(-0.583897 2.336 0.0109462)
(-0.583923 2.336 0.00948684)
(-0.583945 2.336 0.00802743)
(-0.583963 2.336 0.00656796)
(-0.583978 2.336 0.00510846)
(-0.583989 2.336 0.00364892)
(-0.583996 2.336 0.00218936)
(-0.584 2.336 0.000729789)
(-0.584 2.336 -0.000729789)
(-0.583996 2.336 -0.00218936)
(-0.583989 2.336 -0.00364892)
(-0.583978 2.336 -0.00510846)
(-0.583963 2.336 -0.00656796)
(-0.583945 2.336 -0.00802743)
(-0.583923 2.336 -0.00948684)
(-0.583897 2.336 -0.0109462)
(-0.583868 2.336 -0.0124055)
(-0.583835 2.336 -0.0138647)
(-0.583799 2.336 -0.0153238)
(-0.583759 2.336 -0.0167828)
(-0.583715 2.336 -0.0182418)
(-0.583668 2.336 -0.0197006)
(-0.583617 2.336 -0.0211593)
(-0.583562 2.336 -0.0226178)
(-0.583503 2.336 -0.0240762)
(-0.583441 2.336 -0.0255345)
(-0.583376 2.336 -0.0269926)
(-0.583307 2.336 -0.0284505)
(-0.583234 2.336 -0.0299083)
(-0.583157 2.336 -0.0313658)
(-0.583077 2.336 -0.0328232)
(-0.582993 2.336 -0.0342804)
(-0.582905 2.336 -0.0357373)
(-0.582814 2.336 -0.0371941)
(-0.58272 2.336 -0.0386506)
(-0.582621 2.336 -0.0401068)
(-0.582519 2.336 -0.0415628)
(-0.582413 2.336 -0.0430186)
(-0.582304 2.336 -0.044474)
(-0.582191 2.336 -0.0459292)
(-0.582075 2.336 -0.0473842)
(-0.581954 2.336 -0.0488388)
(-0.58183 2.336 -0.0502931)
(-0.581703 2.336 -0.0517471)
(-0.581572 2.336 -0.0532008)
(-0.581437 2.336 -0.0546541)
(-0.581298 2.336 -0.0561071)
(-0.581156 2.336 -0.0575598)
(-0.581011 2.336 -0.059012)
(-0.580862 2.336 -0.060464)
(-0.580709 2.336 -0.0619155)
(-0.580552 2.336 -0.0633667)
(-0.580392 2.336 -0.0648174)
(-0.580228 2.336 -0.0662678)
(-0.580061 2.336 -0.0677177)
(-0.57989 2.336 -0.0691672)
(-0.579715 2.336 -0.0706163)
(-0.579537 2.336 -0.072065)
(-0.579355 2.336 -0.0735132)
(-0.579169 2.336 -0.0749609)
(-0.57898 2.336 -0.0764082)
(-0.578787 2.336 -0.077855)
(-0.578591 2.336 -0.0793013)
(-0.578391 2.336 -0.0807471)
(-0.578187 2.336 -0.0821924)
(-0.57798 2.336 -0.0836372)
(-0.577769 2.336 -0.0850815)
(-0.577555 2.336 -0.0865252)
(-0.577337 2.336 -0.0879684)
(-0.577115 2.336 -0.089411)
(-0.57689 2.336 -0.0908531)
(-0.576661 2.336 -0.0922946)
(-0.576428 2.336 -0.0937356)
(-0.576192 2.336 -0.095176)
(-0.575953 2.336 -0.0966157)
(-0.575709 2.336 -0.0980549)
(-0.575463 2.336 -0.0994934)
(-0.575212 2.336 -0.100931)
(-0.574958 2.336 -0.102369)
(-0.5747 2.336 -0.103805)
(-0.574439 2.336 -0.105241)
(-0.574174 2.336 -0.106677)
(-0.573906 2.336 -0.108111)
(-0.573634 2.336 -0.109545)
(-0.573358 2.336 -0.110979)
(-0.573079 2.336 -0.112411)
(-0.572796 2.336 -0.113843)
(-0.57251 2.336 -0.115274)
(-0.57222 2.336 -0.116705)
(-0.571927 2.336 -0.118135)
(-0.57163 2.336 -0.119564)
(-0.571329 2.336 -0.120992)
(-0.571025 2.336 -0.12242)
(-0.570717 2.336 -0.123846)
(-0.570406 2.336 -0.125272)
(-0.570091 2.336 -0.126698)
(-0.569772 2.336 -0.128122)
(-0.569451 2.336 -0.129546)
(-0.569125 2.336 -0.130968)
(-0.568796 2.336 -0.13239)
(-0.568463 2.336 -0.133812)
(-0.568127 2.336 -0.135232)
(-0.567787 2.336 -0.136651)
(-0.567444 2.336 -0.13807)
(-0.567097 2.336 -0.139488)
(-0.566747 2.336 -0.140905)
(-0.566393 2.336 -0.142321)
(-0.566035 2.336 -0.143736)
(-0.565674 2.336 -0.14515)
(-0.56531 2.336 -0.146563)
(-0.564942 2.336 -0.147976)
(-0.56457 2.336 -0.149387)
(-0.564195 2.336 -0.150798)
(-0.563816 2.336 -0.152207)
(-0.563434 2.336 -0.153616)
(-0.563048 2.336 -0.155024)
(-0.562659 2.336 -0.15643)
(-0.562267 2.336 -0.157836)
(-0.56187 2.336 -0.159241)
(-0.561471 2.336 -0.160645)
(-0.561067 2.336 -0.162048)
(-0.560661 2.336 -0.163449)
(-0.56025 2.336 -0.16485)
(-0.559837 2.336 -0.16625)
(-0.559419 2.336 -0.167648)
(-0.558999 2.336 -0.169046)
(-0.558574 2.336 -0.170443)
(-0.558147 2.336 -0.171838)
(-0.557715 2.336 -0.173233)
(-0.557281 2.336 -0.174626)
(-0.556843 2.336 -0.176018)
(-0.556401 2.336 -0.177409)
(-0.555956 2.336 -0.178799)
(-0.555507 2.336 -0.180188)
(-0.555055 2.336 -0.181576)
(-0.5546 2.336 -0.182963)
(-0.554141 2.336 -0.184348)
(-0.553678 2.336 -0.185733)
(-0.553212 2.336 -0.187116)
(-0.552743 2.336 -0.188498)
(-0.55227 2.336 -0.189879)
(-0.551794 2.336 -0.191259)
(-0.551314 2.336 -0.192637)
(-0.550831 2.336 -0.194014)
(-0.550344 2.336 -0.19539)
(-0.549854 2.336 -0.196765)
(-0.549361 2.336 -0.198139)
(-0.548864 2.336 -0.199511)
(-0.548363 2.336 -0.200882)
(-0.547859 2.336 -0.202252)
(-0.547352 2.336 -0.203621)
(-0.546842 2.336 -0.204988)
(-0.546328 2.336 -0.206354)
(-0.54581 2.336 -0.207719)
(-0.545289 2.336 -0.209082)
(-0.544765 2.336 -0.210445)
(-0.544237 2.336 -0.211805)
(-0.543706 2.336 -0.213165)
(-0.543172 2.336 -0.214523)
(-0.542634 2.336 -0.21588)
(-0.542093 2.336 -0.217236)
(-0.541548 2.336 -0.21859)
(-0.541 2.336 -0.219943)
(-0.540449 2.336 -0.221294)
(-0.539894 2.336 -0.222644)
(-0.539336 2.336 -0.223993)
(-0.538774 2.336 -0.22534)
(-0.53821 2.336 -0.226686)
(-0.537641 2.336 -0.22803)
(-0.53707 2.336 -0.229373)
(-0.536495 2.336 -0.230715)
(-0.535917 2.336 -0.232055)
(-0.535335 2.336 -0.233394)
(-0.53475 2.336 -0.234731)
(-0.534162 2.336 -0.236067)
(-0.53357 2.336 -0.237401)
(-0.532975 2.336 -0.238734)
(-0.532377 2.336 -0.240065)
(-0.531775 2.336 -0.241395)
(-0.53117 2.336 -0.242723)
(-0.530562 2.336 -0.24405)
(-0.52995 2.336 -0.245375)
(-0.529335 2.336 -0.246699)
(-0.528717 2.336 -0.248021)
(-0.528095 2.336 -0.249342)
(-0.527471 2.336 -0.250661)
(-0.526842 2.336 -0.251978)
(-0.526211 2.336 -0.253294)
(-0.525576 2.336 -0.254609)
(-0.524938 2.336 -0.255921)
(-0.524297 2.336 -0.257232)
(-0.523653 2.336 -0.258542)
(-0.523005 2.336 -0.25985)
(-0.522354 2.336 -0.261156)
(-0.521699 2.336 -0.262461)
(-0.521042 2.336 -0.263764)
(-0.520381 2.336 -0.265065)
(-0.519717 2.336 -0.266365)
(-0.51905 2.336 -0.267663)
(-0.518379 2.336 -0.26896)
(-0.517705 2.336 -0.270254)
(-0.517028 2.336 -0.271547)
(-0.516348 2.336 -0.272839)
(-0.515664 2.336 -0.274128)
(-0.514978 2.336 -0.275416)
(-0.514288 2.336 -0.276703)
(-0.513594 2.336 -0.277987)
(-0.512898 2.336 -0.27927)
(-0.512198 2.336 -0.280551)
(-0.511496 2.336 -0.28183)
(-0.51079 2.336 -0.283107)
(-0.510081 2.336 -0.284383)
(-0.509368 2.336 -0.285657)
(-0.508653 2.336 -0.286929)
(-0.507934 2.336 -0.2882)
(-0.507212 2.336 -0.289468)
(-0.506487 2.336 -0.290735)
(-0.505759 2.336 -0.292)
(-0.505027 2.336 -0.293263)
(-0.504293 2.336 -0.294524)
(-0.503555 2.336 -0.295784)
(-0.502814 2.336 -0.297042)
(-0.50207 2.336 -0.298297)
(-0.501323 2.336 -0.299551)
(-0.500573 2.336 -0.300803)
(-0.49982 2.336 -0.302053)
(-0.499063 2.336 -0.303302)
(-0.498304 2.336 -0.304548)
(-0.497541 2.336 -0.305792)
(-0.496775 2.336 -0.307035)
(-0.496006 2.336 -0.308275)
(-0.495234 2.336 -0.309514)
(-0.494459 2.336 -0.310751)
(-0.493681 2.336 -0.311986)
(-0.4929 2.336 -0.313219)
(-0.492115 2.336 -0.314449)
(-0.491328 2.336 -0.315678)
(-0.490537 2.336 -0.316905)
(-0.489744 2.336 -0.31813)
(-0.488947 2.336 -0.319353)
(-0.488148 2.336 -0.320574)
(-0.487345 2.336 -0.321793)
(-0.486539 2.336 -0.32301)
(-0.48573 2.336 -0.324225)
(-0.484918 2.336 -0.325438)
(-0.484104 2.336 -0.326649)
(-0.483286 2.336 -0.327858)
(-0.482465 2.336 -0.329065)
(-0.481641 2.336 -0.33027)
(-0.480814 2.336 -0.331473)
(-0.479984 2.336 -0.332673)
(-0.479151 2.336 -0.333872)
(-0.478315 2.336 -0.335068)
(-0.477476 2.336 -0.336263)
(-0.476634 2.336 -0.337455)
(-0.475789 2.336 -0.338645)
(-0.474941 2.336 -0.339833)
(-0.474091 2.336 -0.341019)
(-0.473237 2.336 -0.342203)
(-0.47238 2.336 -0.343385)
(-0.47152 2.336 -0.344564)
(-0.470658 2.336 -0.345742)
(-0.469792 2.336 -0.346917)
(-0.468924 2.336 -0.34809)
(-0.468052 2.336 -0.349261)
(-0.467178 2.336 -0.350429)
(-0.466301 2.336 -0.351596)
(-0.46542 2.336 -0.35276)
(-0.464537 2.336 -0.353922)
(-0.463651 2.336 -0.355082)
(-0.462763 2.336 -0.35624)
(-0.461871 2.336 -0.357395)
(-0.460976 2.336 -0.358549)
(-0.460078 2.336 -0.3597)
(-0.459178 2.336 -0.360848)
(-0.458275 2.336 -0.361995)
(-0.457369 2.336 -0.363139)
(-0.45646 2.336 -0.364281)
(-0.455548 2.336 -0.365421)
(-0.454633 2.336 -0.366558)
(-0.453715 2.336 -0.367693)
(-0.452795 2.336 -0.368826)
(-0.451872 2.336 -0.369956)
(-0.450946 2.336 -0.371085)
(-0.450017 2.336 -0.372211)
(-0.449085 2.336 -0.373334)
(-0.448151 2.336 -0.374455)
(-0.447214 2.336 -0.375574)
(-0.446274 2.336 -0.376691)
(-0.445331 2.336 -0.377805)
(-0.444385 2.336 -0.378917)
(-0.443437 2.336 -0.380026)
(-0.442485 2.336 -0.381133)
(-0.441532 2.336 -0.382238)
(-0.440575 2.336 -0.38334)
(-0.439615 2.336 -0.38444)
(-0.438653 2.336 -0.385538)
(-0.437688 2.336 -0.386633)
(-0.43672 2.336 -0.387726)
(-0.43575 2.336 -0.388816)
(-0.434777 2.336 -0.389904)
(-0.433801 2.336 -0.390989)
(-0.432823 2.336 -0.392072)
(-0.431841 2.336 -0.393153)
(-0.430858 2.336 -0.394231)
(-0.429871 2.336 -0.395306)
(-0.428881 2.336 -0.396379)
(-0.427889 2.336 -0.39745)
(-0.426895 2.336 -0.398518)
(-0.425898 2.336 -0.399584)
(-0.424897 2.336 -0.400647)
(-0.423895 2.336 -0.401708)
(-0.42289 2.336 -0.402766)
(-0.421882 2.336 -0.403822)
(-0.420871 2.336 -0.404875)
(-0.419858 2.336 -0.405925)
(-0.418842 2.336 -0.406974)
(-0.417823 2.336 -0.408019)
(-0.416802 2.336 -0.409062)
(-0.415779 2.336 -0.410102)
(-0.414753 2.336 -0.41114)
(-0.413724 2.336 -0.412176)
(-0.412692 2.336 -0.413208)
(-0.411658 2.336 -0.414238)
(-0.410622 2.336 -0.415266)
(-0.409582 2.336 -0.416291)
(-0.408541 2.336 -0.417313)
(-0.407497 2.336 -0.418333)
(-0.40645 2.336 -0.41935)
(-0.4054 2.336 -0.420365)
(-0.404348 2.336 -0.421377)
(-0.403294 2.336 -0.422386)
(-0.402237 2.336 -0.423393)
(-0.401178 2.336 -0.424397)
(-0.400116 2.336 -0.425398)
(-0.399051 2.336 -0.426396)
(-0.397985 2.336 -0.427393)
(-0.396915 2.336 -0.428386)
(-0.395843 2.336 -0.429377)
(-0.394769 2.336 -0.430364)
(-0.393692 2.336 -0.43135)
(-0.392613 2.336 -0.432332)
(-0.391531 2.336 -0.433312)
(-0.390447 2.336 -0.434289)
(-0.38936 2.336 -0.435264)
(-0.388271 2.336 -0.436236)
(-0.38718 2.336 -0.437205)
(-0.386086 2.336 -0.438171)
(-0.384989 2.336 -0.439135)
(-0.383891 2.336 -0.440095)
(-0.382789 2.336 -0.441054)
(-0.381686 2.336 -0.442009)
(-0.38058 2.336 -0.442961)
(-0.379472 2.336 -0.443911)
(-0.378361 2.336 -0.444858)
(-0.377248 2.336 -0.445802)
(-0.376133 2.336 -0.446744)
(-0.375015 2.336 -0.447682)
(-0.373895 2.336 -0.448618)
(-0.372773 2.336 -0.449551)
(-0.371648 2.336 -0.450482)
(-0.370521 2.336 -0.451409)
(-0.369392 2.336 -0.452334)
(-0.36826 2.336 -0.453256)
(-0.367126 2.336 -0.454175)
(-0.36599 2.336 -0.455091)
(-0.364851 2.336 -0.456004)
(-0.36371 2.336 -0.456914)
(-0.362567 2.336 -0.457822)
(-0.361422 2.336 -0.458727)
(-0.360274 2.336 -0.459629)
(-0.359124 2.336 -0.460528)
(-0.357972 2.336 -0.461424)
(-0.356818 2.336 -0.462317)
(-0.355661 2.336 -0.463207)
(-0.354503 2.336 -0.464095)
(-0.353342 2.336 -0.464979)
(-0.352178 2.336 -0.465861)
(-0.351013 2.336 -0.46674)
(-0.349845 2.336 -0.467615)
(-0.348676 2.336 -0.468488)
(-0.347504 2.336 -0.469358)
(-0.34633 2.336 -0.470225)
(-0.345153 2.336 -0.47109)
(-0.343975 2.336 -0.471951)
(-0.342794 2.336 -0.472809)
(-0.341611 2.336 -0.473664)
(-0.340427 2.336 -0.474516)
(-0.339239 2.336 -0.475366)
(-0.33805 2.336 -0.476212)
(-0.336859 2.336 -0.477055)
(-0.335666 2.336 -0.477896)
(-0.33447 2.336 -0.478733)
(-0.333273 2.336 -0.479568)
(-0.332073 2.336 -0.480399)
(-0.330871 2.336 -0.481228)
(-0.329668 2.336 -0.482053)
(-0.328462 2.336 -0.482875)
(-0.327254 2.336 -0.483695)
(-0.326044 2.336 -0.484511)
(-0.324832 2.336 -0.485325)
(-0.323618 2.336 -0.486135)
(-0.322402 2.336 -0.486942)
(-0.321184 2.336 -0.487747)
(-0.319964 2.336 -0.488548)
(-0.318742 2.336 -0.489346)
(-0.317518 2.336 -0.490141)
(-0.316292 2.336 -0.490933)
(-0.315064 2.336 -0.491722)
(-0.313834 2.336 -0.492508)
(-0.312602 2.336 -0.493291)
(-0.311368 2.336 -0.494071)
(-0.310133 2.336 -0.494847)
(-0.308895 2.336 -0.495621)
(-0.307655 2.336 -0.496391)
(-0.306414 2.336 -0.497158)
(-0.30517 2.336 -0.497923)
(-0.303925 2.336 -0.498684)
(-0.302678 2.336 -0.499442)
(-0.301428 2.336 -0.500197)
(-0.300177 2.336 -0.500949)
(-0.298924 2.336 -0.501697)
(-0.29767 2.336 -0.502443)
(-0.296413 2.336 -0.503185)
(-0.295154 2.336 -0.503924)
(-0.293894 2.336 -0.504661)
(-0.292632 2.336 -0.505394)
(-0.291368 2.336 -0.506123)
(-0.290102 2.336 -0.50685)
(-0.288834 2.336 -0.507573)
(-0.287565 2.336 -0.508294)
(-0.286294 2.336 -0.509011)
(-0.285021 2.336 -0.509725)
(-0.283746 2.336 -0.510436)
(-0.282469 2.336 -0.511143)
(-0.281191 2.336 -0.511847)
(-0.279911 2.336 -0.512549)
(-0.278629 2.336 -0.513247)
(-0.277345 2.336 -0.513941)
(-0.27606 2.336 -0.514633)
(-0.274773 2.336 -0.515321)
(-0.273484 2.336 -0.516006)
(-0.272193 2.336 -0.516688)
(-0.270901 2.336 -0.517367)
(-0.269607 2.336 -0.518042)
(-0.268312 2.336 -0.518715)
(-0.267014 2.336 -0.519384)
(-0.265716 2.336 -0.520049)
(-0.264415 2.336 -0.520712)