/*--------------------------------*- C++ -*----------------------------------*\
  =========                 |
  \\      /  F ield         | OpenFOAM: The Open Source CFD Toolbox
   \\    /   O peration     | Website:  https://openfoam.org
    \\  /    A nd           | Version:  10
     \\/     M anipulation  |
\*---------------------------------------------------------------------------*/
FoamFile
{
    format      ascii;
    class       featureEdgeMesh;
    location    "constant/triSurface";
    object      rushton_blades.eMesh;
}
// * * * * * * * * * * * * * * * * * * * * * * * * * * * * * * * * * * * * * //


// points:

5148
(
(-0.108404 0.195169 -0.00225891)
(-0.0541667 0.195169 -0.00225891)
(-0.0541667 0.195169 0.00225891)
(-0.108404 0.195169 0.00225891)
(-0.108404 0.238541 -0.00225891)
(-0.0541667 0.238541 -0.00225891)
(-0.0541667 0.219114 -0.00225891)
(-0.0541667 0.214596 -0.00225891)
(-0.0541667 0.214596 0.00225891)
(-0.108404 0.238541 0.00225891)
(-0.0541667 0.219114 0.00225891)
(-0.0541667 0.238541 0.00225891)
(0.0541667 0.195169 -0.00225891)
(0.108404 0.195169 -0.00225891)
(0.108404 0.195169 0.00225891)
(0.0541667 0.195169 0.00225891)
(0.0541667 0.214596 -0.00225891)
(0.0541667 0.219114 -0.00225891)
(0.0541667 0.238541 -0.00225891)
(0.108404 0.238541 -0.00225891)
(0.108404 0.238541 0.00225891)
(0.0541667 0.214596 0.00225891)
(0.0541667 0.238541 0.00225891)
(0.0541667 0.219114 0.00225891)
(-0.0561583 0.195169 0.0927512)
(-0.0290396 0.195169 0.0457803)
(-0.0251271 0.195169 0.0480392)
(-0.0522457 0.195169 0.0950101)
(-0.0561583 0.238541 0.0927512)
(-0.0290396 0.238541 0.0457803)
(-0.0290396 0.219114 0.0457803)
(-0.0290396 0.214596 0.0457803)
(-0.0251271 0.214596 0.0480392)
(-0.0522457 0.238541 0.0950101)
(-0.0251271 0.219114 0.0480392)
(-0.0251271 0.238541 0.0480392)
(0.0251271 0.195169 -0.0480392)
(0.0522457 0.195169 -0.0950101)
(0.0561583 0.195169 -0.0927512)
(0.0290396 0.195169 -0.0457803)
(0.0251271 0.214596 -0.0480392)
(0.0251271 0.219114 -0.0480392)
(0.0251271 0.238541 -0.0480392)
(0.0522457 0.238541 -0.0950101)
(0.0561583 0.238541 -0.0927512)
(0.0290396 0.214596 -0.0457803)
(0.0290396 0.238541 -0.0457803)
(0.0290396 0.219114 -0.0457803)
(0.0522457 0.195169 0.0950101)
(0.0251271 0.195169 0.0480392)
(0.0290396 0.195169 0.0457803)
(0.0561583 0.195169 0.0927512)
(0.0522457 0.238541 0.0950101)
(0.0251271 0.238541 0.0480392)
(0.0251271 0.219114 0.0480392)
(0.0251271 0.214596 0.0480392)
(0.0290396 0.214596 0.0457803)
(0.0561583 0.238541 0.0927512)
(0.0290396 0.219114 0.0457803)
(0.0290396 0.238541 0.0457803)
(-0.0290396 0.195169 -0.0457803)
(-0.0561583 0.195169 -0.0927512)
(-0.0522457 0.195169 -0.0950101)
(-0.0251271 0.195169 -0.0480392)
(-0.0290396 0.214596 -0.0457803)
(-0.0290396 0.219114 -0.0457803)
(-0.0290396 0.238541 -0.0457803)
(-0.0561583 0.238541 -0.0927512)
(-0.0522457 0.238541 -0.0950101)
(-0.0251271 0.214596 -0.0480392)
(-0.0251271 0.238541 -0.0480392)
(-0.0251271 0.219114 -0.0480392)
(-0.0921357 0.219114 -0.00225891)
(-0.0921357 0.214596 -0.00225891)
(-0.0921357 0.214596 0.00225891)
(-0.0921357 0.219114 0.00225891)
(0.0921357 0.214596 -0.00225891)
(0.0921357 0.219114 -0.00225891)
(0.0921357 0.219114 0.00225891)
(0.0921357 0.214596 0.00225891)
(-0.0480241 0.219114 0.0786624)
(-0.0480241 0.214596 0.0786624)
(-0.0441116 0.214596 0.0809213)
(-0.0441116 0.219114 0.0809213)
(0.0441116 0.214596 -0.0809213)
(0.0441116 0.219114 -0.0809213)
(0.0480241 0.219114 -0.0786624)
(0.0480241 0.214596 -0.0786624)
(0.0441116 0.219114 0.0809213)
(0.0441116 0.214596 0.0809213)
(0.0480241 0.214596 0.0786624)
(0.0480241 0.219114 0.0786624)
(-0.0480241 0.214596 -0.0786624)
(-0.0480241 0.219114 -0.0786624)
(-0.0441116 0.219114 -0.0809213)
(-0.0441116 0.214596 -0.0809213)
(-0.107734 0.195169 -0.00225891)
(-0.108415 0.195169 -0.00161356)
(-0.107065 0.195169 -0.00225891)
(-0.106395 0.195169 -0.00225891)
(-0.105726 0.195169 -0.00225891)
(-0.105056 0.195169 -0.00225891)
(-0.104386 0.195169 -0.00225891)
(-0.103717 0.195169 -0.00225891)
(-0.103047 0.195169 -0.00225891)
(-0.102378 0.195169 -0.00225891)
(-0.101708 0.195169 -0.00225891)
(-0.101038 0.195169 -0.00225891)
(-0.100369 0.195169 -0.00225891)
(-0.0996992 0.195169 -0.00225891)
(-0.0990296 0.195169 -0.00225891)
(-0.09836 0.195169 -0.00225891)
(-0.0976904 0.195169 -0.00225891)
(-0.0970208 0.195169 -0.00225891)
(-0.0963513 0.195169 -0.00225891)
(-0.0956817 0.195169 -0.00225891)
(-0.095012 0.195169 -0.00225891)
(-0.0943425 0.195169 -0.00225891)
(-0.0936729 0.195169 -0.00225891)
(-0.0930033 0.195169 -0.00225891)
(-0.0923337 0.195169 -0.00225891)
(-0.0916641 0.195169 -0.00225891)
(-0.0909945 0.195169 -0.00225891)
(-0.0903249 0.195169 -0.00225891)
(-0.0896553 0.195169 -0.00225891)
(-0.0889857 0.195169 -0.00225891)
(-0.0883161 0.195169 -0.00225891)
(-0.0876465 0.195169 -0.00225891)
(-0.0869769 0.195169 -0.00225891)
(-0.0863073 0.195169 -0.00225891)
(-0.0856377 0.195169 -0.00225891)
(-0.0849681 0.195169 -0.00225891)
(-0.0842985 0.195169 -0.00225891)
(-0.0836289 0.195169 -0.00225891)
(-0.0829593 0.195169 -0.00225891)
(-0.0822897 0.195169 -0.00225891)
(-0.0816201 0.195169 -0.00225891)
(-0.0809505 0.195169 -0.00225891)
(-0.0802809 0.195169 -0.00225891)
(-0.0796113 0.195169 -0.00225891)
(-0.0789417 0.195169 -0.00225891)
(-0.0782721 0.195169 -0.00225891)
(-0.0776026 0.195169 -0.00225891)
(-0.076933 0.195169 -0.00225891)
(-0.0762634 0.195169 -0.00225891)
(-0.0755938 0.195169 -0.00225891)
(-0.0749242 0.195169 -0.00225891)
(-0.0742546 0.195169 -0.00225891)
(-0.073585 0.195169 -0.00225891)
(-0.0729154 0.195169 -0.00225891)
(-0.0722458 0.195169 -0.00225891)
(-0.0715762 0.195169 -0.00225891)
(-0.0709066 0.195169 -0.00225891)
(-0.070237 0.195169 -0.00225891)
(-0.0695674 0.195169 -0.00225891)
(-0.0688978 0.195169 -0.00225891)
(-0.0682282 0.195169 -0.00225891)
(-0.0675586 0.195169 -0.00225891)
(-0.066889 0.195169 -0.00225891)
(-0.0662194 0.195169 -0.00225891)
(-0.0655498 0.195169 -0.00225891)
(-0.0648802 0.195169 -0.00225891)
(-0.0642106 0.195169 -0.00225891)
(-0.063541 0.195169 -0.00225891)
(-0.0628714 0.195169 -0.00225891)
(-0.0622018 0.195169 -0.00225891)
(-0.0615322 0.195169 -0.00225891)
(-0.0608626 0.195169 -0.00225891)
(-0.060193 0.195169 -0.00225891)
(-0.0595234 0.195169 -0.00225891)
(-0.0588538 0.195169 -0.00225891)
(-0.0581843 0.195169 -0.00225891)
(-0.0575147 0.195169 -0.00225891)
(-0.0568451 0.195169 -0.00225891)
(-0.0561755 0.195169 -0.00225891)
(-0.0555059 0.195169 -0.00225891)
(-0.0548363 0.195169 -0.00225891)
(-0.0541897 0.195169 -0.00161373)
(-0.0542051 0.195169 -0.000968332)
(-0.0542128 0.195169 -0.000322793)
(-0.0542128 0.195169 0.000322793)
(-0.0542051 0.195169 0.000968332)
(-0.0541897 0.195169 0.00161373)
(-0.0548363 0.195169 0.00225891)
(-0.0555059 0.195169 0.00225891)
(-0.0561755 0.195169 0.00225891)
(-0.0568451 0.195169 0.00225891)
(-0.0575147 0.195169 0.00225891)
(-0.0581843 0.195169 0.00225891)
(-0.0588538 0.195169 0.00225891)
(-0.0595234 0.195169 0.00225891)
(-0.060193 0.195169 0.00225891)
(-0.0608626 0.195169 0.00225891)
(-0.0615322 0.195169 0.00225891)
(-0.0622018 0.195169 0.00225891)
(-0.0628714 0.195169 0.00225891)
(-0.063541 0.195169 0.00225891)
(-0.0642106 0.195169 0.00225891)
(-0.0648802 0.195169 0.00225891)
(-0.0655498 0.195169 0.00225891)
(-0.0662194 0.195169 0.00225891)
(-0.066889 0.195169 0.00225891)
(-0.0675586 0.195169 0.00225891)
(-0.0682282 0.195169 0.00225891)
(-0.0688978 0.195169 0.00225891)
(-0.0695674 0.195169 0.00225891)
(-0.070237 0.195169 0.00225891)
(-0.0709066 0.195169 0.00225891)
(-0.0715762 0.195169 0.00225891)
(-0.0722458 0.195169 0.00225891)
(-0.0729154 0.195169 0.00225891)
(-0.073585 0.195169 0.00225891)
(-0.0742546 0.195169 0.00225891)
(-0.0749242 0.195169 0.00225891)
(-0.0755938 0.195169 0.00225891)
(-0.0762634 0.195169 0.00225891)
(-0.076933 0.195169 0.00225891)
(-0.0776026 0.195169 0.00225891)
(-0.0782721 0.195169 0.00225891)
(-0.0789417 0.195169 0.00225891)
(-0.0796113 0.195169 0.00225891)
(-0.0802809 0.195169 0.00225891)
(-0.0809505 0.195169 0.00225891)
(-0.0816201 0.195169 0.00225891)
(-0.0822897 0.195169 0.00225891)
(-0.0829593 0.195169 0.00225891)
(-0.0836289 0.195169 0.00225891)
(-0.0842985 0.195169 0.00225891)
(-0.0849681 0.195169 0.00225891)
(-0.0856377 0.195169 0.00225891)
(-0.0863073 0.195169 0.00225891)
(-0.0869769 0.195169 0.00225891)
(-0.0876465 0.195169 0.00225891)
(-0.0883161 0.195169 0.00225891)
(-0.0889857 0.195169 0.00225891)
(-0.0896553 0.195169 0.00225891)
(-0.0903249 0.195169 0.00225891)
(-0.0909945 0.195169 0.00225891)
(-0.0916641 0.195169 0.00225891)
(-0.0923337 0.195169 0.00225891)
(-0.0930033 0.195169 0.00225891)
(-0.0936729 0.195169 0.00225891)
(-0.0943425 0.195169 0.00225891)
(-0.095012 0.195169 0.00225891)
(-0.0956817 0.195169 0.00225891)
(-0.0963513 0.195169 0.00225891)
(-0.0970208 0.195169 0.00225891)
(-0.0976904 0.195169 0.00225891)
(-0.09836 0.195169 0.00225891)
(-0.0990296 0.195169 0.00225891)
(-0.0996992 0.195169 0.00225891)
(-0.100369 0.195169 0.00225891)
(-0.101038 0.195169 0.00225891)
(-0.101708 0.195169 0.00225891)
(-0.102378 0.195169 0.00225891)
(-0.103047 0.195169 0.00225891)
(-0.103717 0.195169 0.00225891)
(-0.104386 0.195169 0.00225891)
(-0.105056 0.195169 0.00225891)
(-0.105726 0.195169 0.00225891)
(-0.106395 0.195169 0.00225891)
(-0.107065 0.195169 0.00225891)
(-0.107734 0.195169 0.00225891)
(-0.108415 0.195169 0.00161356)
(-0.108423 0.195169 0.00096816)
(-0.108427 0.195169 0.000322724)
(-0.108427 0.195169 -0.000322724)
(-0.108423 0.195169 -0.00096816)
(-0.108404 0.195847 -0.00225891)
(-0.108404 0.196525 -0.00225891)
(-0.108404 0.197203 -0.00225891)
(-0.108404 0.19788 -0.00225891)
(-0.108404 0.198558 -0.00225891)
(-0.108404 0.199236 -0.00225891)
(-0.108404 0.199913 -0.00225891)
(-0.108404 0.200591 -0.00225891)
(-0.108404 0.201269 -0.00225891)
(-0.108404 0.201946 -0.00225891)
(-0.108404 0.202624 -0.00225891)
(-0.108404 0.203302 -0.00225891)
(-0.108404 0.203979 -0.00225891)
(-0.108404 0.204657 -0.00225891)
(-0.108404 0.205335 -0.00225891)
(-0.108404 0.206012 -0.00225891)
(-0.108404 0.20669 -0.00225891)
(-0.108404 0.207368 -0.00225891)
(-0.108404 0.208045 -0.00225891)
(-0.108404 0.208723 -0.00225891)
(-0.108404 0.209401 -0.00225891)
(-0.108404 0.210078 -0.00225891)
(-0.108404 0.210756 -0.00225891)
(-0.108404 0.211434 -0.00225891)
(-0.108404 0.212111 -0.00225891)
(-0.108404 0.212789 -0.00225891)
(-0.108404 0.213467 -0.00225891)
(-0.108404 0.214144 -0.00225891)
(-0.108404 0.214822 -0.00225891)
(-0.108404 0.2155 -0.00225891)
(-0.108404 0.216177 -0.00225891)
(-0.108404 0.216855 -0.00225891)
(-0.108404 0.217533 -0.00225891)
(-0.108404 0.21821 -0.00225891)
(-0.108404 0.218888 -0.00225891)
(-0.108404 0.219566 -0.00225891)
(-0.108404 0.220243 -0.00225891)
(-0.108404 0.220921 -0.00225891)
(-0.108404 0.221599 -0.00225891)
(-0.108404 0.222276 -0.00225891)
(-0.108404 0.222954 -0.00225891)
(-0.108404 0.223632 -0.00225891)
(-0.108404 0.224309 -0.00225891)
(-0.108404 0.224987 -0.00225891)
(-0.108404 0.225665 -0.00225891)
(-0.108404 0.226342 -0.00225891)
(-0.108404 0.22702 -0.00225891)
(-0.108404 0.227698 -0.00225891)
(-0.108404 0.228375 -0.00225891)
(-0.108404 0.229053 -0.00225891)
(-0.108404 0.229731 -0.00225891)
(-0.108404 0.230409 -0.00225891)
(-0.108404 0.231086 -0.00225891)
(-0.108404 0.231764 -0.00225891)
(-0.108404 0.232441 -0.00225891)
(-0.108404 0.233119 -0.00225891)
(-0.108404 0.233797 -0.00225891)
(-0.108404 0.234474 -0.00225891)
(-0.108404 0.235152 -0.00225891)
(-0.108404 0.23583 -0.00225891)
(-0.108404 0.236508 -0.00225891)
(-0.108404 0.237185 -0.00225891)
(-0.108404 0.237863 -0.00225891)
(-0.107734 0.238541 -0.00225891)
(-0.107065 0.238541 -0.00225891)
(-0.106395 0.238541 -0.00225891)
(-0.105726 0.238541 -0.00225891)
(-0.105056 0.238541 -0.00225891)
(-0.104386 0.238541 -0.00225891)
(-0.103717 0.238541 -0.00225891)
(-0.103047 0.238541 -0.00225891)
(-0.102378 0.238541 -0.00225891)
(-0.101708 0.238541 -0.00225891)
(-0.101038 0.238541 -0.00225891)
(-0.100369 0.238541 -0.00225891)
(-0.0996992 0.238541 -0.00225891)
(-0.0990296 0.238541 -0.00225891)
(-0.09836 0.238541 -0.00225891)
(-0.0976904 0.238541 -0.00225891)
(-0.0970208 0.238541 -0.00225891)
(-0.0963513 0.238541 -0.00225891)
(-0.0956817 0.238541 -0.00225891)
(-0.095012 0.238541 -0.00225891)
(-0.0943425 0.238541 -0.00225891)
(-0.0936729 0.238541 -0.00225891)
(-0.0930033 0.238541 -0.00225891)
(-0.0923337 0.238541 -0.00225891)
(-0.0916641 0.238541 -0.00225891)
(-0.0909945 0.238541 -0.00225891)
(-0.0903249 0.238541 -0.00225891)
(-0.0896553 0.238541 -0.00225891)
(-0.0889857 0.238541 -0.00225891)
(-0.0883161 0.238541 -0.00225891)
(-0.0876465 0.238541 -0.00225891)
(-0.0869769 0.238541 -0.00225891)
(-0.0863073 0.238541 -0.00225891)
(-0.0856377 0.238541 -0.00225891)
(-0.0849681 0.238541 -0.00225891)
(-0.0842985 0.238541 -0.00225891)
(-0.0836289 0.238541 -0.00225891)
(-0.0829593 0.238541 -0.00225891)
(-0.0822897 0.238541 -0.00225891)
(-0.0816201 0.238541 -0.00225891)
(-0.0809505 0.238541 -0.00225891)
(-0.0802809 0.238541 -0.00225891)
(-0.0796113 0.238541 -0.00225891)
(-0.0789417 0.238541 -0.00225891)
(-0.0782721 0.238541 -0.00225891)
(-0.0776026 0.238541 -0.00225891)
(-0.076933 0.238541 -0.00225891)
(-0.0762634 0.238541 -0.00225891)
(-0.0755938 0.238541 -0.00225891)
(-0.0749242 0.238541 -0.00225891)
(-0.0742546 0.238541 -0.00225891)
(-0.073585 0.238541 -0.00225891)
(-0.0729154 0.238541 -0.00225891)
(-0.0722458 0.238541 -0.00225891)
(-0.0715762 0.238541 -0.00225891)
(-0.0709066 0.238541 -0.00225891)
(-0.070237 0.238541 -0.00225891)
(-0.0695674 0.238541 -0.00225891)
(-0.0688978 0.238541 -0.00225891)
(-0.0682282 0.238541 -0.00225891)
(-0.0675586 0.238541 -0.00225891)
(-0.066889 0.238541 -0.00225891)
(-0.0662194 0.238541 -0.00225891)
(-0.0655498 0.238541 -0.00225891)
(-0.0648802 0.238541 -0.00225891)
(-0.0642106 0.238541 -0.00225891)
(-0.063541 0.238541 -0.00225891)
(-0.0628714 0.238541 -0.00225891)
(-0.0622018 0.238541 -0.00225891)
(-0.0615322 0.238541 -0.00225891)
(-0.0608626 0.238541 -0.00225891)
(-0.060193 0.238541 -0.00225891)
(-0.0595234 0.238541 -0.00225891)
(-0.0588538 0.238541 -0.00225891)
(-0.0581843 0.238541 -0.00225891)
(-0.0575147 0.238541 -0.00225891)
(-0.0568451 0.238541 -0.00225891)
(-0.0561755 0.238541 -0.00225891)
(-0.0555059 0.238541 -0.00225891)
(-0.0548363 0.238541 -0.00225891)
(-0.0541667 0.237871 -0.00225891)
(-0.0541667 0.237201 -0.00225891)
(-0.0541667 0.236531 -0.00225891)
(-0.0541667 0.235861 -0.00225891)
(-0.0541667 0.235191 -0.00225891)
(-0.0541667 0.234521 -0.00225891)
(-0.0541667 0.233851 -0.00225891)
(-0.0541667 0.233182 -0.00225891)
(-0.0541667 0.232512 -0.00225891)
(-0.0541667 0.231842 -0.00225891)
(-0.0541667 0.231172 -0.00225891)
(-0.0541667 0.230502 -0.00225891)
(-0.0541667 0.229832 -0.00225891)
(-0.0541667 0.229162 -0.00225891)
(-0.0541667 0.228492 -0.00225891)
(-0.0541667 0.227822 -0.00225891)
(-0.0541667 0.227152 -0.00225891)
(-0.0541667 0.226483 -0.00225891)
(-0.0541667 0.225813 -0.00225891)
(-0.0541667 0.225143 -0.00225891)
(-0.0541667 0.224473 -0.00225891)
(-0.0541667 0.223803 -0.00225891)
(-0.0541667 0.223133 -0.00225891)
(-0.0541667 0.222463 -0.00225891)
(-0.0541667 0.221794 -0.00225891)
(-0.0541667 0.221124 -0.00225891)
(-0.0541667 0.220454 -0.00225891)
(-0.0541667 0.219784 -0.00225891)
(-0.0548328 0.219114 -0.00225891)
(-0.0554989 0.219114 -0.00225891)
(-0.0561651 0.219114 -0.00225891)
(-0.0568312 0.219114 -0.00225891)
(-0.0574973 0.219114 -0.00225891)
(-0.0581634 0.219114 -0.00225891)
(-0.0588295 0.219114 -0.00225891)
(-0.0594957 0.219114 -0.00225891)
(-0.0601618 0.219114 -0.00225891)
(-0.0608279 0.219114 -0.00225891)
(-0.061494 0.219114 -0.00225891)
(-0.0621602 0.219114 -0.00225891)
(-0.0628263 0.219114 -0.00225891)
(-0.0634924 0.219114 -0.00225891)
(-0.0641585 0.219114 -0.00225891)
(-0.0648246 0.219114 -0.00225891)
(-0.0654908 0.219114 -0.00225891)
(-0.0661569 0.219114 -0.00225891)
(-0.066823 0.219114 -0.00225891)
(-0.0674891 0.219114 -0.00225891)
(-0.0681553 0.219114 -0.00225891)
(-0.0688214 0.219114 -0.00225891)
(-0.0694875 0.219114 -0.00225891)
(-0.0701536 0.219114 -0.00225891)
(-0.0708198 0.219114 -0.00225891)
(-0.0714859 0.219114 -0.00225891)
(-0.072152 0.219114 -0.00225891)
(-0.0728181 0.219114 -0.00225891)
(-0.0734842 0.219114 -0.00225891)
(-0.0741504 0.219114 -0.00225891)
(-0.0748165 0.219114 -0.00225891)
(-0.0754826 0.219114 -0.00225891)
(-0.0761487 0.219114 -0.00225891)
(-0.0768149 0.219114 -0.00225891)
(-0.077481 0.219114 -0.00225891)
(-0.0781471 0.219114 -0.00225891)
(-0.0788132 0.219114 -0.00225891)
(-0.0794794 0.219114 -0.00225891)
(-0.0801455 0.219114 -0.00225891)
(-0.0808116 0.219114 -0.00225891)
(-0.0814777 0.219114 -0.00225891)
(-0.0821439 0.219114 -0.00225891)
(-0.08281 0.219114 -0.00225891)
(-0.0834761 0.219114 -0.00225891)
(-0.0841422 0.219114 -0.00225891)
(-0.0848083 0.219114 -0.00225891)
(-0.0854745 0.219114 -0.00225891)
(-0.0861406 0.219114 -0.00225891)
(-0.0868067 0.219114 -0.00225891)
(-0.0874728 0.219114 -0.00225891)
(-0.088139 0.219114 -0.00225891)
(-0.0888051 0.219114 -0.00225891)
(-0.0894712 0.219114 -0.00225891)
(-0.0901373 0.219114 -0.00225891)
(-0.0908035 0.219114 -0.00225891)
(-0.0914696 0.219114 -0.00225891)
(-0.0921357 0.218469 -0.00225891)
(-0.0921357 0.217823 -0.00225891)
(-0.0921357 0.217178 -0.00225891)
(-0.0921357 0.216532 -0.00225891)
(-0.0921357 0.215887 -0.00225891)
(-0.0921357 0.215242 -0.00225891)
(-0.0914696 0.214596 -0.00225891)
(-0.0908035 0.214596 -0.00225891)
(-0.0901373 0.214596 -0.00225891)
(-0.0894712 0.214596 -0.00225891)
(-0.0888051 0.214596 -0.00225891)
(-0.088139 0.214596 -0.00225891)
(-0.0874728 0.214596 -0.00225891)
(-0.0868067 0.214596 -0.00225891)
(-0.0861406 0.214596 -0.00225891)
(-0.0854745 0.214596 -0.00225891)
(-0.0848083 0.214596 -0.00225891)
(-0.0841422 0.214596 -0.00225891)
(-0.0834761 0.214596 -0.00225891)
(-0.08281 0.214596 -0.00225891)
(-0.0821439 0.214596 -0.00225891)
(-0.0814777 0.214596 -0.00225891)
(-0.0808116 0.214596 -0.00225891)
(-0.0801455 0.214596 -0.00225891)
(-0.0794794 0.214596 -0.00225891)
(-0.0788132 0.214596 -0.00225891)
(-0.0781471 0.214596 -0.00225891)
(-0.077481 0.214596 -0.00225891)
(-0.0768149 0.214596 -0.00225891)
(-0.0761487 0.214596 -0.00225891)
(-0.0754826 0.214596 -0.00225891)
(-0.0748165 0.214596 -0.00225891)
(-0.0741504 0.214596 -0.00225891)
(-0.0734842 0.214596 -0.00225891)
(-0.0728181 0.214596 -0.00225891)
(-0.072152 0.214596 -0.00225891)
(-0.0714859 0.214596 -0.00225891)
(-0.0708198 0.214596 -0.00225891)
(-0.0701536 0.214596 -0.00225891)
(-0.0694875 0.214596 -0.00225891)
(-0.0688214 0.214596 -0.00225891)
(-0.0681553 0.214596 -0.00225891)
(-0.0674891 0.214596 -0.00225891)
(-0.066823 0.214596 -0.00225891)
(-0.0661569 0.214596 -0.00225891)
(-0.0654908 0.214596 -0.00225891)
(-0.0648246 0.214596 -0.00225891)
(-0.0641585 0.214596 -0.00225891)
(-0.0634924 0.214596 -0.00225891)
(-0.0628263 0.214596 -0.00225891)
(-0.0621602 0.214596 -0.00225891)
(-0.061494 0.214596 -0.00225891)
(-0.0608279 0.214596 -0.00225891)
(-0.0601618 0.214596 -0.00225891)
(-0.0594957 0.214596 -0.00225891)
(-0.0588295 0.214596 -0.00225891)
(-0.0581634 0.214596 -0.00225891)
(-0.0574973 0.214596 -0.00225891)
(-0.0568312 0.214596 -0.00225891)
(-0.0561651 0.214596 -0.00225891)
(-0.0554989 0.214596 -0.00225891)
(-0.0541667 0.213926 -0.00225891)
(-0.0548328 0.214596 -0.00225891)
(-0.0541667 0.213256 -0.00225891)
(-0.0541667 0.212587 -0.00225891)
(-0.0541667 0.211917 -0.00225891)
(-0.0541667 0.211247 -0.00225891)
(-0.0541667 0.210577 -0.00225891)
(-0.0541667 0.209907 -0.00225891)
(-0.0541667 0.209237 -0.00225891)
(-0.0541667 0.208567 -0.00225891)
(-0.0541667 0.207897 -0.00225891)
(-0.0541667 0.207227 -0.00225891)
(-0.0541667 0.206557 -0.00225891)
(-0.0541667 0.205888 -0.00225891)
(-0.0541667 0.205218 -0.00225891)
(-0.0541667 0.204548 -0.00225891)
(-0.0541667 0.203878 -0.00225891)
(-0.0541667 0.203208 -0.00225891)
(-0.0541667 0.202538 -0.00225891)
(-0.0541667 0.201868 -0.00225891)
(-0.0541667 0.201199 -0.00225891)
(-0.0541667 0.200529 -0.00225891)
(-0.0541667 0.199859 -0.00225891)
(-0.0541667 0.199189 -0.00225891)
(-0.0541667 0.198519 -0.00225891)
(-0.0541667 0.197849 -0.00225891)
(-0.0541667 0.197179 -0.00225891)
(-0.0541667 0.196509 -0.00225891)
(-0.0541667 0.195839 -0.00225891)
(-0.0541897 0.214596 -0.00161373)
(-0.0542051 0.214596 -0.000968332)
(-0.0542128 0.214596 -0.000322793)
(-0.0542128 0.214596 0.000322793)
(-0.0542051 0.214596 0.000968332)
(-0.0541897 0.214596 0.00161373)
(-0.0541667 0.213926 0.00225891)
(-0.0541667 0.213256 0.00225891)
(-0.0541667 0.212587 0.00225891)
(-0.0541667 0.211917 0.00225891)
(-0.0541667 0.211247 0.00225891)
(-0.0541667 0.210577 0.00225891)
(-0.0541667 0.209907 0.00225891)
(-0.0541667 0.209237 0.00225891)
(-0.0541667 0.208567 0.00225891)
(-0.0541667 0.207897 0.00225891)
(-0.0541667 0.207227 0.00225891)
(-0.0541667 0.206557 0.00225891)
(-0.0541667 0.205888 0.00225891)
(-0.0541667 0.205218 0.00225891)
(-0.0541667 0.204548 0.00225891)
(-0.0541667 0.203878 0.00225891)
(-0.0541667 0.203208 0.00225891)
(-0.0541667 0.202538 0.00225891)
(-0.0541667 0.201868 0.00225891)
(-0.0541667 0.201199 0.00225891)
(-0.0541667 0.200529 0.00225891)
(-0.0541667 0.199859 0.00225891)
(-0.0541667 0.199189 0.00225891)
(-0.0541667 0.198519 0.00225891)
(-0.0541667 0.197849 0.00225891)
(-0.0541667 0.197179 0.00225891)
(-0.0541667 0.196509 0.00225891)
(-0.0541667 0.195839 0.00225891)
(-0.108404 0.237863 0.00225891)
(-0.107734 0.238541 0.00225891)
(-0.108404 0.237185 0.00225891)
(-0.108404 0.236508 0.00225891)
(-0.108404 0.23583 0.00225891)
(-0.108404 0.235152 0.00225891)
(-0.108404 0.234474 0.00225891)
(-0.108404 0.233797 0.00225891)
(-0.108404 0.233119 0.00225891)
(-0.108404 0.232441 0.00225891)
(-0.108404 0.231764 0.00225891)
(-0.108404 0.231086 0.00225891)
(-0.108404 0.230409 0.00225891)
(-0.108404 0.229731 0.00225891)
(-0.108404 0.229053 0.00225891)
(-0.108404 0.228375 0.00225891)
(-0.108404 0.227698 0.00225891)
(-0.108404 0.22702 0.00225891)
(-0.108404 0.226342 0.00225891)
(-0.108404 0.225665 0.00225891)
(-0.108404 0.224987 0.00225891)
(-0.108404 0.224309 0.00225891)
(-0.108404 0.223632 0.00225891)
(-0.108404 0.222954 0.00225891)
(-0.108404 0.222276 0.00225891)
(-0.108404 0.221599 0.00225891)
(-0.108404 0.220921 0.00225891)
(-0.108404 0.220243 0.00225891)
(-0.108404 0.219566 0.00225891)
(-0.108404 0.218888 0.00225891)
(-0.108404 0.21821 0.00225891)
(-0.108404 0.217533 0.00225891)
(-0.108404 0.216855 0.00225891)
(-0.108404 0.216177 0.00225891)
(-0.108404 0.2155 0.00225891)
(-0.108404 0.214822 0.00225891)
(-0.108404 0.214144 0.00225891)
(-0.108404 0.213467 0.00225891)
(-0.108404 0.212789 0.00225891)
(-0.108404 0.212111 0.00225891)
(-0.108404 0.211434 0.00225891)
(-0.108404 0.210756 0.00225891)
(-0.108404 0.210078 0.00225891)
(-0.108404 0.209401 0.00225891)
(-0.108404 0.208723 0.00225891)
(-0.108404 0.208045 0.00225891)
(-0.108404 0.207368 0.00225891)
(-0.108404 0.20669 0.00225891)
(-0.108404 0.206012 0.00225891)
(-0.108404 0.205335 0.00225891)
(-0.108404 0.204657 0.00225891)
(-0.108404 0.203979 0.00225891)
(-0.108404 0.203302 0.00225891)
(-0.108404 0.202624 0.00225891)
(-0.108404 0.201946 0.00225891)
(-0.108404 0.201269 0.00225891)
(-0.108404 0.200591 0.00225891)
(-0.108404 0.199913 0.00225891)
(-0.108404 0.199236 0.00225891)
(-0.108404 0.198558 0.00225891)
(-0.108404 0.19788 0.00225891)
(-0.108404 0.197203 0.00225891)
(-0.108404 0.196525 0.00225891)
(-0.108404 0.195847 0.00225891)
(-0.0548328 0.214596 0.00225891)
(-0.0554989 0.214596 0.00225891)
(-0.0561651 0.214596 0.00225891)
(-0.0568312 0.214596 0.00225891)
(-0.0574973 0.214596 0.00225891)
(-0.0581634 0.214596 0.00225891)
(-0.0588295 0.214596 0.00225891)
(-0.0594957 0.214596 0.00225891)
(-0.0601618 0.214596 0.00225891)
(-0.0608279 0.214596 0.00225891)
(-0.061494 0.214596 0.00225891)
(-0.0621602 0.214596 0.00225891)
(-0.0628263 0.214596 0.00225891)
(-0.0634924 0.214596 0.00225891)
(-0.0641585 0.214596 0.00225891)
(-0.0648246 0.214596 0.00225891)
(-0.0654908 0.214596 0.00225891)
(-0.0661569 0.214596 0.00225891)
(-0.066823 0.214596 0.00225891)
(-0.0674891 0.214596 0.00225891)
(-0.0681553 0.214596 0.00225891)
(-0.0688214 0.214596 0.00225891)
(-0.0694875 0.214596 0.00225891)
(-0.0701536 0.214596 0.00225891)
(-0.0708198 0.214596 0.00225891)
(-0.0714859 0.214596 0.00225891)
(-0.072152 0.214596 0.00225891)
(-0.0728181 0.214596 0.00225891)
(-0.0734842 0.214596 0.00225891)
(-0.0741504 0.214596 0.00225891)
(-0.0748165 0.214596 0.00225891)
(-0.0754826 0.214596 0.00225891)
(-0.0761487 0.214596 0.00225891)
(-0.0768149 0.214596 0.00225891)
(-0.077481 0.214596 0.00225891)
(-0.0781471 0.214596 0.00225891)
(-0.0788132 0.214596 0.00225891)
(-0.0794794 0.214596 0.00225891)
(-0.0801455 0.214596 0.00225891)
(-0.0808116 0.214596 0.00225891)
(-0.0814777 0.214596 0.00225891)
(-0.0821439 0.214596 0.00225891)
(-0.08281 0.214596 0.00225891)
(-0.0834761 0.214596 0.00225891)
(-0.0841422 0.214596 0.00225891)
(-0.0848083 0.214596 0.00225891)
(-0.0854745 0.214596 0.00225891)
(-0.0861406 0.214596 0.00225891)
(-0.0868067 0.214596 0.00225891)
(-0.0874728 0.214596 0.00225891)
(-0.088139 0.214596 0.00225891)
(-0.0888051 0.214596 0.00225891)
(-0.0894712 0.214596 0.00225891)
(-0.0901373 0.214596 0.00225891)
(-0.0908035 0.214596 0.00225891)
(-0.0914696 0.214596 0.00225891)
(-0.0921357 0.215242 0.00225891)
(-0.0921357 0.215887 0.00225891)
(-0.0921357 0.216532 0.00225891)
(-0.0921357 0.217178 0.00225891)
(-0.0921357 0.217823 0.00225891)
(-0.0921357 0.218469 0.00225891)
(-0.0914696 0.219114 0.00225891)
(-0.0908035 0.219114 0.00225891)
(-0.0901373 0.219114 0.00225891)
(-0.0894712 0.219114 0.00225891)
(-0.0888051 0.219114 0.00225891)
(-0.088139 0.219114 0.00225891)
(-0.0874728 0.219114 0.00225891)
(-0.0868067 0.219114 0.00225891)
(-0.0861406 0.219114 0.00225891)
(-0.0854745 0.219114 0.00225891)
(-0.0848083 0.219114 0.00225891)
(-0.0841422 0.219114 0.00225891)
(-0.0834761 0.219114 0.00225891)
(-0.08281 0.219114 0.00225891)
(-0.0821439 0.219114 0.00225891)
(-0.0814777 0.219114 0.00225891)
(-0.0808116 0.219114 0.00225891)
(-0.0801455 0.219114 0.00225891)
(-0.0794794 0.219114 0.00225891)
(-0.0788132 0.219114 0.00225891)
(-0.0781471 0.219114 0.00225891)
(-0.077481 0.219114 0.00225891)
(-0.0768149 0.219114 0.00225891)
(-0.0761487 0.219114 0.00225891)
(-0.0754826 0.219114 0.00225891)
(-0.0748165 0.219114 0.00225891)
(-0.0741504 0.219114 0.00225891)
(-0.0734842 0.219114 0.00225891)
(-0.0728181 0.219114 0.00225891)
(-0.072152 0.219114 0.00225891)
(-0.0714859 0.219114 0.00225891)
(-0.0708198 0.219114 0.00225891)
(-0.0701536 0.219114 0.00225891)
(-0.0694875 0.219114 0.00225891)
(-0.0688214 0.219114 0.00225891)
(-0.0681553 0.219114 0.00225891)
(-0.0674891 0.219114 0.00225891)
(-0.066823 0.219114 0.00225891)
(-0.0661569 0.219114 0.00225891)
(-0.0654908 0.219114 0.00225891)
(-0.0648246 0.219114 0.00225891)
(-0.0641585 0.219114 0.00225891)
(-0.0634924 0.219114 0.00225891)
(-0.0628263 0.219114 0.00225891)
(-0.0621602 0.219114 0.00225891)
(-0.061494 0.219114 0.00225891)
(-0.0608279 0.219114 0.00225891)
(-0.0601618 0.219114 0.00225891)
(-0.0594957 0.219114 0.00225891)
(-0.0588295 0.219114 0.00225891)
(-0.0581634 0.219114 0.00225891)
(-0.0574973 0.219114 0.00225891)
(-0.0568312 0.219114 0.00225891)
(-0.0561651 0.219114 0.00225891)
(-0.0554989 0.219114 0.00225891)
(-0.0541667 0.219784 0.00225891)
(-0.0548328 0.219114 0.00225891)
(-0.0541667 0.220454 0.00225891)
(-0.0541667 0.221124 0.00225891)
(-0.0541667 0.221794 0.00225891)
(-0.0541667 0.222463 0.00225891)
(-0.0541667 0.223133 0.00225891)
(-0.0541667 0.223803 0.00225891)
(-0.0541667 0.224473 0.00225891)
(-0.0541667 0.225143 0.00225891)
(-0.0541667 0.225813 0.00225891)
(-0.0541667 0.226483 0.00225891)
(-0.0541667 0.227152 0.00225891)
(-0.0541667 0.227822 0.00225891)
(-0.0541667 0.228492 0.00225891)
(-0.0541667 0.229162 0.00225891)
(-0.0541667 0.229832 0.00225891)
(-0.0541667 0.230502 0.00225891)
(-0.0541667 0.231172 0.00225891)
(-0.0541667 0.231842 0.00225891)
(-0.0541667 0.232512 0.00225891)
(-0.0541667 0.233182 0.00225891)
(-0.0541667 0.233851 0.00225891)
(-0.0541667 0.234521 0.00225891)
(-0.0541667 0.235191 0.00225891)
(-0.0541667 0.235861 0.00225891)
(-0.0541667 0.236531 0.00225891)
(-0.0541667 0.237201 0.00225891)
(-0.0541667 0.237871 0.00225891)
(-0.0548363 0.238541 0.00225891)
(-0.0555059 0.238541 0.00225891)
(-0.0561755 0.238541 0.00225891)
(-0.0568451 0.238541 0.00225891)
(-0.0575147 0.238541 0.00225891)
(-0.0581843 0.238541 0.00225891)
(-0.0588538 0.238541 0.00225891)
(-0.0595234 0.238541 0.00225891)
(-0.060193 0.238541 0.00225891)
(-0.0608626 0.238541 0.00225891)
(-0.0615322 0.238541 0.00225891)
(-0.0622018 0.238541 0.00225891)
(-0.0628714 0.238541 0.00225891)
(-0.063541 0.238541 0.00225891)
(-0.0642106 0.238541 0.00225891)
(-0.0648802 0.238541 0.00225891)
(-0.0655498 0.238541 0.00225891)
(-0.0662194 0.238541 0.00225891)
(-0.066889 0.238541 0.00225891)
(-0.0675586 0.238541 0.00225891)
(-0.0682282 0.238541 0.00225891)
(-0.0688978 0.238541 0.00225891)
(-0.0695674 0.238541 0.00225891)
(-0.070237 0.238541 0.00225891)
(-0.0709066 0.238541 0.00225891)
(-0.0715762 0.238541 0.00225891)
(-0.0722458 0.238541 0.00225891)
(-0.0729154 0.238541 0.00225891)
(-0.073585 0.238541 0.00225891)
(-0.0742546 0.238541 0.00225891)
(-0.0749242 0.238541 0.00225891)
(-0.0755938 0.238541 0.00225891)
(-0.0762634 0.238541 0.00225891)
(-0.076933 0.238541 0.00225891)
(-0.0776026 0.238541 0.00225891)
(-0.0782721 0.238541 0.00225891)
(-0.0789417 0.238541 0.00225891)
(-0.0796113 0.238541 0.00225891)
(-0.0802809 0.238541 0.00225891)
(-0.0809505 0.238541 0.00225891)
(-0.0816201 0.238541 0.00225891)
(-0.0822897 0.238541 0.00225891)
(-0.0829593 0.238541 0.00225891)
(-0.0836289 0.238541 0.00225891)
(-0.0842985 0.238541 0.00225891)
(-0.0849681 0.238541 0.00225891)
(-0.0856377 0.238541 0.00225891)
(-0.0863073 0.238541 0.00225891)
(-0.0869769 0.238541 0.00225891)
(-0.0876465 0.238541 0.00225891)
(-0.0883161 0.238541 0.00225891)
(-0.0889857 0.238541 0.00225891)
(-0.0896553 0.238541 0.00225891)
(-0.0903249 0.238541 0.00225891)
(-0.0909945 0.238541 0.00225891)
(-0.0916641 0.238541 0.00225891)
(-0.0923337 0.238541 0.00225891)