/*--------------------------------*- C++ -*----------------------------------*\
  =========                 |
  \\      /  F ield         | OpenFOAM: The Open Source CFD Toolbox
   \\    /   O peration     | Website:  https://openfoam.org
    \\  /    A nd           | Version:  10
     \\/     M anipulation  |
\*---------------------------------------------------------------------------*/
FoamFile
{
    format      ascii;
    class       polyBoundaryMesh;
    location    "constant/polyMesh";
    object      boundary;
}
// * * * * * * * * * * * * * * * * * * * * * * * * * * * * * * * * * * * * * //

8
(
    outlet
    {
        type            patch;
        nFaces          4896;
        startFace       3156619;
    }
    tankwall
    {
        type            wall;
        inGroups        List<word> 1(wall);
        nFaces          25963;
        startFace       3161515;
    }
    baffles
    {
        type            wall;
        inGroups        List<word> 1(wall);
        nFaces          32664;
        startFace       3187478;
    }
    sparger_lower
    {
        type            wall;
        inGroups        List<word> 1(wall);
        nFaces          1040;
        startFace       3220142;
    }
    sparger_upper
    {
        type            patch;
        nFaces          352;
        startFace       3221182;
    }
    impeller
    {
        type            wall;
        inGroups        List<word> 1(wall);
        nFaces          4659;
        startFace       3221534;
    }
    blades
    {
        type            wall;
        inGroups        List<word> 1(wall);
        nFaces          13101;
        startFace       3226193;
    }
    shaft
    {
        type            wall;
        inGroups        List<word> 1(wall);
        nFaces          1632;
        startFace       3239294;
    }
)

// ************************************************************************* //
