/*--------------------------------*- C++ -*----------------------------------*\
  =========                 |
  \\      /  F ield         | OpenFOAM: The Open Source CFD Toolbox
   \\    /   O peration     | Website:  https://openfoam.org
    \\  /    A nd           | Version:  10
     \\/     M anipulation  |
\*---------------------------------------------------------------------------*/
FoamFile
{
    format          ascii;
    class           dictionary;
    location        "system";
    object          controlDict;
}
// * * * * * * * * * * * * * * * * * * * * * * * * * * * * * * * * * * * * * //

#include "/data/openfoam-10/run/of-bioreactors/configs/controlDict.base"

endTime         120;

functions {
#include "/data/openfoam-10/run/of-bioreactors/functionObjects/controlDict.run"
#include "/data/openfoam-10/run/of-bioreactors/functionObjects/minMax"
fieldAverage1
{
    type              fieldAverage;
    libs              ("libfieldFunctionObjects.so");
    restartOnRestart  false;
    timeStart         90;
    writeControl      outputTime;
    fields
    (
     #include "/data/openfoam-10/run/of-bioreactors/functionObjects/meanFields"
    );
}
}
