/*--------------------------------*- C++ -*----------------------------------*\
  =========                 |
  \\      /  F ield         | OpenFOAM: The Open Source CFD Toolbox
   \\    /   O peration     | Website:  https://openfoam.org
    \\  /    A nd           | Version:  10
     \\/     M anipulation  |
\*---------------------------------------------------------------------------*/
FoamFile
{
    format      ascii;
    class       featureEdgeMesh;
    location    "constant/triSurface";
    object      impeller_shaft.eMesh;
}
// * * * * * * * * * * * * * * * * * * * * * * * * * * * * * * * * * * * * * //


// points:

776
(
(-0.0130274 0.548355 0.00373928)
(-0.0121222 0.552799 0.00606198)
(0.00081128 0.531476 0.0135291)
(0.0032754 0.53592 0.0131517)
(0.00975202 0.548355 0.00941243)
(0.0113109 0.531476 -0.00746716)
(0.00975202 0.53592 -0.00941243)
(0.0113109 0.552799 0.00746716)
(0.0032754 0.548355 -0.0131517)
(-0.0121222 0.531476 -0.00606198)
(-0.0130274 0.53592 -0.00373928)
(0.00081128 0.552799 -0.0135291)
(-0.000675583 0.219114 0.0135366)
(-3.31964e-18 0.219114 0.0135534)
(-3.31964e-18 0.516115 0.0135534)
(-0.000675583 0.516115 0.0135366)
(-0.00134949 0.516115 0.0134861)
(-0.00202003 0.516115 0.0134021)
(-0.00268556 0.516115 0.0132847)
(-0.00334441 0.516115 0.0131343)
(-0.00399495 0.516115 0.0129513)
(-0.00463555 0.516115 0.0127361)
(-0.00526463 0.516115 0.0124892)
(-0.00588062 0.516115 0.0122112)
(-0.00648199 0.516115 0.0119029)
(-0.00706724 0.516115 0.011565)
(-0.00763492 0.516115 0.0111984)
(-0.00818363 0.516115 0.0108039)
(-0.00871198 0.516115 0.0103825)
(-0.00921868 0.516115 0.00993537)
(-0.00970246 0.516115 0.00946351)
(-0.0101621 0.516115 0.00896812)
(-0.0105965 0.516115 0.00845043)
(-0.0110046 0.516115 0.00791173)
(-0.0113852 0.516115 0.00735337)
(-0.0117376 0.516115 0.00677672)
(-0.0120608 0.516115 0.00618322)
(-0.012354 0.516115 0.00557435)
(-0.0126165 0.516115 0.00495163)
(-0.0128477 0.516115 0.00431659)
(-0.0130469 0.516115 0.00367082)
(-0.0132136 0.516115 0.00301592)
(-0.0133475 0.516115 0.00235353)
(-0.0134482 0.516115 0.00168529)
(-0.0135155 0.516115 0.00101285)
(-0.0135492 0.516115 0.000337897)
(-0.0135492 0.516115 -0.000337897)
(-0.0135155 0.516115 -0.00101285)
(-0.0134482 0.516115 -0.00168529)
(-0.0133475 0.516115 -0.00235353)
(-0.0132136 0.516115 -0.00301592)
(-0.0130469 0.516115 -0.00367082)
(-0.0128477 0.516115 -0.00431659)
(-0.0126165 0.516115 -0.00495163)
(-0.012354 0.516115 -0.00557435)
(-0.0120608 0.516115 -0.00618322)
(-0.0117376 0.516115 -0.00677672)
(-0.0113852 0.516115 -0.00735337)
(-0.0110046 0.516115 -0.00791173)
(-0.0105965 0.516115 -0.00845043)
(-0.0101621 0.516115 -0.00896812)
(-0.00970246 0.516115 -0.00946351)
(-0.00921868 0.516115 -0.00993537)
(-0.00871198 0.516115 -0.0103825)
(-0.00818363 0.516115 -0.0108039)
(-0.00763492 0.516115 -0.0111984)
(-0.00706724 0.516115 -0.011565)
(-0.00648199 0.516115 -0.0119029)
(-0.00588062 0.516115 -0.0122112)
(-0.00526463 0.516115 -0.0124892)
(-0.00463555 0.516115 -0.0127361)
(-0.00399495 0.516115 -0.0129513)
(-0.00334441 0.516115 -0.0131343)
(-0.00268556 0.516115 -0.0132847)
(-0.00202003 0.516115 -0.0134021)
(-0.00134949 0.516115 -0.0134861)
(-0.000675583 0.516115 -0.0135366)
(-4.64917e-17 0.516115 -0.0135534)
(0.000675583 0.516115 -0.0135366)
(0.00134949 0.516115 -0.0134861)
(0.00202003 0.516115 -0.0134021)
(0.00268556 0.516115 -0.0132847)
(0.00334441 0.516115 -0.0131343)
(0.00399495 0.516115 -0.0129513)
(0.00463555 0.516115 -0.0127361)
(0.00526463 0.516115 -0.0124892)
(0.00588062 0.516115 -0.0122112)
(0.00648199 0.516115 -0.0119029)
(0.00706724 0.516115 -0.011565)
(0.00763492 0.516115 -0.0111984)
(0.00818363 0.516115 -0.0108039)
(0.00871198 0.516115 -0.0103825)
(0.00921868 0.516115 -0.00993537)
(0.00970246 0.516115 -0.00946351)
(0.0101621 0.516115 -0.00896812)
(0.0105965 0.516115 -0.00845043)
(0.0110046 0.516115 -0.00791173)
(0.0113852 0.516115 -0.00735337)
(0.0117376 0.516115 -0.00677672)
(0.0120608 0.516115 -0.00618322)
(0.012354 0.516115 -0.00557435)
(0.0126165 0.516115 -0.00495163)
(0.0128477 0.516115 -0.00431659)
(0.0130469 0.516115 -0.00367082)
(0.0132136 0.516115 -0.00301592)
(0.0133475 0.516115 -0.00235353)
(0.0134482 0.516115 -0.00168529)
(0.0135155 0.516115 -0.00101285)
(0.0135492 0.516115 -0.000337897)
(0.0135492 0.516115 0.000337897)
(0.0135155 0.516115 0.00101285)
(0.0134482 0.516115 0.00168529)
(0.0133475 0.516115 0.00235353)
(0.0132136 0.516115 0.00301592)
(0.0130469 0.516115 0.00367082)
(0.0128477 0.516115 0.00431659)
(0.0126165 0.516115 0.00495163)
(0.012354 0.516115 0.00557435)
(0.0120608 0.516115 0.00618322)
(0.0117376 0.516115 0.00677672)
(0.0113852 0.516115 0.00735337)
(0.0110046 0.516115 0.00791173)
(0.0105965 0.516115 0.00845043)
(0.0101621 0.516115 0.00896812)
(0.00970246 0.516115 0.00946351)
(0.00921868 0.516115 0.00993537)
(0.00871198 0.516115 0.0103825)
(0.00818363 0.516115 0.0108039)
(0.00763492 0.516115 0.0111984)
(0.00706724 0.516115 0.011565)
(0.00648199 0.516115 0.0119029)
(0.00588062 0.516115 0.0122112)
(0.00526463 0.516115 0.0124892)
(0.00463555 0.516115 0.0127361)
(0.00399495 0.516115 0.0129513)
(0.00334441 0.516115 0.0131343)
(0.00268556 0.516115 0.0132847)
(0.00202003 0.516115 0.0134021)
(0.00134949 0.516115 0.0134861)
(0.000675583 0.516115 0.0135366)
(0.000675583 0.219114 0.0135366)
(0.00134949 0.219114 0.0134861)
(0.00202003 0.219114 0.0134021)
(0.00268556 0.219114 0.0132847)
(0.00334441 0.219114 0.0131343)
(0.00399495 0.219114 0.0129513)
(0.00463555 0.219114 0.0127361)
(0.00526463 0.219114 0.0124892)
(0.00588062 0.219114 0.0122112)
(0.00648199 0.219114 0.0119029)
(0.00706724 0.219114 0.011565)
(0.00763492 0.219114 0.0111984)
(0.00818363 0.219114 0.0108039)
(0.00871198 0.219114 0.0103825)
(0.00921868 0.219114 0.00993537)
(0.00970246 0.219114 0.00946351)
(0.0101621 0.219114 0.00896812)
(0.0105965 0.219114 0.00845043)
(0.0110046 0.219114 0.00791173)
(0.0113852 0.219114 0.00735337)
(0.0117376 0.219114 0.00677672)
(0.0120608 0.219114 0.00618322)
(0.012354 0.219114 0.00557435)
(0.0126165 0.219114 0.00495163)
(0.0128477 0.219114 0.00431659)
(0.0130469 0.219114 0.00367082)
(0.0132136 0.219114 0.00301592)
(0.0133475 0.219114 0.00235353)
(0.0134482 0.219114 0.00168529)
(0.0135155 0.219114 0.00101285)
(0.0135492 0.219114 0.000337897)
(0.0135492 0.219114 -0.000337897)
(0.0135155 0.219114 -0.00101285)
(0.0134482 0.219114 -0.00168529)
(0.0133475 0.219114 -0.00235353)
(0.0132136 0.219114 -0.00301592)
(0.0130469 0.219114 -0.00367082)
(0.0128477 0.219114 -0.00431659)
(0.0126165 0.219114 -0.00495163)
(0.012354 0.219114 -0.00557435)
(0.0120608 0.219114 -0.00618322)
(0.0117376 0.219114 -0.00677672)
(0.0113852 0.219114 -0.00735337)
(0.0110046 0.219114 -0.00791173)
(0.0105965 0.219114 -0.00845043)
(0.0101621 0.219114 -0.00896812)
(0.00970246 0.219114 -0.00946351)
(0.00921868 0.219114 -0.00993537)
(0.00871198 0.219114 -0.0103825)
(0.00818363 0.219114 -0.0108039)
(0.00763492 0.219114 -0.0111984)
(0.00706724 0.219114 -0.011565)
(0.00648199 0.219114 -0.0119029)
(0.00588062 0.219114 -0.0122112)
(0.00526463 0.219114 -0.0124892)
(0.00463555 0.219114 -0.0127361)
(0.00399495 0.219114 -0.0129513)
(0.00334441 0.219114 -0.0131343)
(0.00268556 0.219114 -0.0132847)
(0.00202003 0.219114 -0.0134021)
(0.00134949 0.219114 -0.0134861)
(0.000675583 0.219114 -0.0135366)
(-4.64917e-17 0.219114 -0.0135534)
(-0.000675583 0.219114 -0.0135366)
(-0.00134949 0.219114 -0.0134861)
(-0.00202003 0.219114 -0.0134021)
(-0.00268556 0.219114 -0.0132847)
(-0.00334441 0.219114 -0.0131343)
(-0.00399495 0.219114 -0.0129513)
(-0.00463555 0.219114 -0.0127361)
(-0.00526463 0.219114 -0.0124892)
(-0.00588062 0.219114 -0.0122112)
(-0.00648199 0.219114 -0.0119029)
(-0.00706724 0.219114 -0.011565)
(-0.00763492 0.219114 -0.0111984)
(-0.00818363 0.219114 -0.0108039)
(-0.00871198 0.219114 -0.0103825)
(-0.00921868 0.219114 -0.00993537)
(-0.00970246 0.219114 -0.00946351)
(-0.0101621 0.219114 -0.00896812)
(-0.0105965 0.219114 -0.00845043)
(-0.0110046 0.219114 -0.00791173)
(-0.0113852 0.219114 -0.00735337)
(-0.0117376 0.219114 -0.00677672)
(-0.0120608 0.219114 -0.00618322)
(-0.012354 0.219114 -0.00557435)
(-0.0126165 0.219114 -0.00495163)
(-0.0128477 0.219114 -0.00431659)
(-0.0130469 0.219114 -0.00367082)
(-0.0132136 0.219114 -0.00301592)
(-0.0133475 0.219114 -0.00235353)
(-0.0134482 0.219114 -0.00168529)
(-0.0135155 0.219114 -0.00101285)
(-0.0135492 0.219114 -0.000337897)
(-0.0135492 0.219114 0.000337897)
(-0.0135155 0.219114 0.00101285)
(-0.0134482 0.219114 0.00168529)
(-0.0133475 0.219114 0.00235353)
(-0.0132136 0.219114 0.00301592)
(-0.0130469 0.219114 0.00367082)
(-0.0128477 0.219114 0.00431659)
(-0.0126165 0.219114 0.00495163)
(-0.012354 0.219114 0.00557435)
(-0.0120608 0.219114 0.00618322)
(-0.0117376 0.219114 0.00677672)
(-0.0113852 0.219114 0.00735337)
(-0.0110046 0.219114 0.00791173)
(-0.0105965 0.219114 0.00845043)
(-0.0101621 0.219114 0.00896812)
(-0.00970246 0.219114 0.00946351)
(-0.00921868 0.219114 0.00993537)
(-0.00871198 0.219114 0.0103825)
(-0.00818363 0.219114 0.0108039)
(-0.00763492 0.219114 0.0111984)
(-0.00706724 0.219114 0.011565)
(-0.00648199 0.219114 0.0119029)
(-0.00588062 0.219114 0.0122112)
(-0.00526463 0.219114 0.0124892)
(-0.00463555 0.219114 0.0127361)
(-0.00399495 0.219114 0.0129513)
(-0.00334441 0.219114 0.0131343)
(-0.00268556 0.219114 0.0132847)
(-0.00202003 0.219114 0.0134021)
(-0.00134949 0.219114 0.0134861)
(-0.0128698 0.547964 0.00425004)
(-0.0129397 0.548914 0.00403231)
(-0.0126946 0.547563 0.00474797)
(-0.0125025 0.547154 0.00523294)
(-0.0122943 0.546738 0.00570484)
(-0.0120709 0.546315 0.00616361)
(-0.0118328 0.545886 0.00660919)
(-0.0115807 0.545451 0.00704155)
(-0.0113152 0.545012 0.00746067)
(-0.0110369 0.544568 0.00786653)
(-0.0107463 0.54412 0.00825911)
(-0.0104438 0.543668 0.0086384)
(-0.01013 0.543214 0.00900439)
(-0.00980519 0.542756 0.00935703)
(-0.00946981 0.542296 0.00969631)
(-0.00912423 0.541834 0.0100222)
(-0.00876878 0.54137 0.0103346)
(-0.00840381 0.540904 0.0106335)
(-0.00802961 0.540437 0.0109188)
(-0.00764647 0.53997 0.0111905)
(-0.00725467 0.539501 0.0114484)
(-0.00685447 0.539033 0.0116924)
(-0.00644612 0.538564 0.0119224)
(-0.00602986 0.538096 0.0121382)
(-0.00560592 0.537628 0.0123398)
(-0.00517452 0.537161 0.0125268)
(-0.00473589 0.536695 0.0126991)
(-0.00429024 0.53623 0.0128565)
(-0.00383779 0.535767 0.0129987)
(-0.00337875 0.535306 0.0131255)
(-0.00291333 0.534848 0.0132366)
(-0.00244176 0.534392 0.0133317)
(-0.00196427 0.533939 0.0134104)
(-0.00148109 0.53349 0.0134723)
(-0.000992473 0.533044 0.0135171)
(-0.000498681 0.532603 0.0135443)
(-3.31964e-18 0.532166 0.0135534)
(-3.31964e-18 0.538555 0.0135534)
(-0.000502267 0.538995 0.0135441)
(-0.000999572 0.539439 0.0135165)
(-0.00149162 0.539888 0.0134711)
(-0.00197815 0.540341 0.0134083)
(-0.00245891 0.540797 0.0133285)
(-0.00293364 0.541257 0.0132321)
(-0.00340212 0.541719 0.0131195)
(-0.00386413 0.542183 0.0129909)
(-0.00431944 0.54265 0.0128467)
(-0.00476783 0.543118 0.0126871)
(-0.00520908 0.543587 0.0125124)
(-0.00564298 0.544058 0.0123228)
(-0.00606929 0.544529 0.0121186)
(-0.0064878 0.545001 0.0118998)
(-0.00689825 0.545473 0.0116666)
(-0.00730041 0.545945 0.0114193)
(-0.00769401 0.546416 0.0111579)
(-0.00807879 0.546887 0.0108825)
(-0.00845447 0.547357 0.0105933)
(-0.00882075 0.547826 0.0102903)
(-0.00917731 0.548293 0.0099736)
(-0.00952382 0.548758 0.00964327)
(-0.00985991 0.549221 0.00929935)
(-0.0101852 0.549682 0.00894187)
(-0.0104993 0.550139 0.00857087)
(-0.0108018 0.550594 0.00818637)
(-0.0110922 0.551044 0.00778838)
(-0.01137 0.55149 0.00737693)
(-0.0116346 0.551932 0.00695204)
(-0.0118856 0.552369 0.00651371)
(-0.0122617 0.552248 0.00577473)
(-0.0123933 0.551695 0.00548647)
(-0.0125173 0.551141 0.00519728)
(-0.0126339 0.550586 0.00490721)
(-0.0127431 0.55003 0.00461632)
(-0.012845 0.549473 0.00432468)
(0.000458789 0.538162 0.0135457)
(0.000404246 0.531819 0.0135474)
(0.00112977 0.532027 0.0135063)
(0.00144524 0.53258 0.0134762)
(0.0017577 0.533134 0.013439)
(0.00206717 0.533689 0.0133949)
(0.00237367 0.534245 0.013344)
(0.0026772 0.534803 0.0132864)
(0.00297777 0.535361 0.0132223)
(0.00280007 0.536277 0.013261)
(0.00232658 0.536641 0.0133523)
(0.00185535 0.537012 0.0134259)
(0.00138676 0.53739 0.0134823)
(0.000921133 0.537773 0.0135221)
(-0.000675583 0.56816 0.0135366)
(-3.31964e-18 0.56816 0.0135534)
(-3.31964e-18 0.618037 0.0135534)
(-0.000675583 0.618037 0.0135366)
(-0.00134949 0.618037 0.0134861)
(-0.00202003 0.618037 0.0134021)
(-0.00268556 0.618037 0.0132847)
(-0.00334441 0.618037 0.0131343)
(-0.00399495 0.618037 0.0129513)
(-0.00463555 0.618037 0.0127361)
(-0.00526463 0.618037 0.0124892)
(-0.00588062 0.618037 0.0122112)
(-0.00648199 0.618037 0.0119029)
(-0.00706724 0.618037 0.011565)
(-0.00763492 0.618037 0.0111984)
(-0.00818363 0.618037 0.0108039)
(-0.00871198 0.618037 0.0103825)
(-0.00921868 0.618037 0.00993537)
(-0.00970246 0.618037 0.00946351)
(-0.0101621 0.618037 0.00896812)
(-0.0105965 0.618037 0.00845043)
(-0.0110046 0.618037 0.00791173)
(-0.0113852 0.618037 0.00735337)
(-0.0117376 0.618037 0.00677672)
(-0.0120608 0.618037 0.00618322)
(-0.012354 0.618037 0.00557435)
(-0.0126165 0.618037 0.00495163)
(-0.0128477 0.618037 0.00431659)
(-0.0130469 0.618037 0.00367082)
(-0.0132136 0.618037 0.00301592)
(-0.0133475 0.618037 0.00235353)
(-0.0134482 0.618037 0.00168529)
(-0.0135155 0.618037 0.00101285)
(-0.0135492 0.618037 0.000337897)
(-0.0135492 0.618037 -0.000337897)
(-0.0135155 0.618037 -0.00101285)
(-0.0134482 0.618037 -0.00168529)
(-0.0133475 0.618037 -0.00235353)
(-0.0132136 0.618037 -0.00301592)
(-0.0130469 0.618037 -0.00367082)
(-0.0128477 0.618037 -0.00431659)
(-0.0126165 0.618037 -0.00495163)
(-0.012354 0.618037 -0.00557435)
(-0.0120608 0.618037 -0.00618322)
(-0.0117376 0.618037 -0.00677672)
(-0.0113852 0.618037 -0.00735337)
(-0.0110046 0.618037 -0.00791173)
(-0.0105965 0.618037 -0.00845043)
(-0.0101621 0.618037 -0.00896812)
(-0.00970246 0.618037 -0.00946351)
(-0.00921868 0.618037 -0.00993537)
(-0.00871198 0.618037 -0.0103825)
(-0.00818363 0.618037 -0.0108039)
(-0.00763492 0.618037 -0.0111984)
(-0.00706724 0.618037 -0.011565)
(-0.00648199 0.618037 -0.0119029)
(-0.00588062 0.618037 -0.0122112)
(-0.00526463 0.618037 -0.0124892)
(-0.00463555 0.618037 -0.0127361)
(-0.00399495 0.618037 -0.0129513)
(-0.00334441 0.618037 -0.0131343)
(-0.00268556 0.618037 -0.0132847)
(-0.00202003 0.618037 -0.0134021)
(-0.00134949 0.618037 -0.0134861)
(-0.000675583 0.618037 -0.0135366)
(-4.64917e-17 0.618037 -0.0135534)
(0.000675583 0.618037 -0.0135366)
(0.00134949 0.618037 -0.0134861)
(0.00202003 0.618037 -0.0134021)
(0.00268556 0.618037 -0.0132847)
(0.00334441 0.618037 -0.0131343)
(0.00399495 0.618037 -0.0129513)
(0.00463555 0.618037 -0.0127361)
(0.00526463 0.618037 -0.0124892)
(0.00588062 0.618037 -0.0122112)
(0.00648199 0.618037 -0.0119029)
(0.00706724 0.618037 -0.011565)
(0.00763492 0.618037 -0.0111984)
(0.00818363 0.618037 -0.0108039)
(0.00871198 0.618037 -0.0103825)
(0.00921868 0.618037 -0.00993537)
(0.00970246 0.618037 -0.00946351)
(0.0101621 0.618037 -0.00896812)
(0.0105965 0.618037 -0.00845043)
(0.0110046 0.618037 -0.00791173)
(0.0113852 0.618037 -0.00735337)
(0.0117376 0.618037 -0.00677672)
(0.0120608 0.618037 -0.00618322)
(0.012354 0.618037 -0.00557435)
(0.0126165 0.618037 -0.00495163)
(0.0128477 0.618037 -0.00431659)
(0.0130469 0.618037 -0.00367082)
(0.0132136 0.618037 -0.00301592)
(0.0133475 0.618037 -0.00235353)
(0.0134482 0.618037 -0.00168529)
(0.0135155 0.618037 -0.00101285)
(0.0135492 0.618037 -0.000337897)
(0.0135492 0.618037 0.000337897)
(0.0135155 0.618037 0.00101285)
(0.0134482 0.618037 0.00168529)
(0.0133475 0.618037 0.00235353)
(0.0132136 0.618037 0.00301592)
(0.0130469 0.618037 0.00367082)
(0.0128477 0.618037 0.00431659)
(0.0126165 0.618037 0.00495163)
(0.012354 0.618037 0.00557435)
(0.0120608 0.618037 0.00618322)
(0.0117376 0.618037 0.00677672)
(0.0113852 0.618037 0.00735337)
(0.0110046 0.618037 0.00791173)
(0.0105965 0.618037 0.00845043)
(0.0101621 0.618037 0.00896812)
(0.00970246 0.618037 0.00946351)
(0.00921868 0.618037 0.00993537)
(0.00871198 0.618037 0.0103825)
(0.00818363 0.618037 0.0108039)
(0.00763492 0.618037 0.0111984)
(0.00706724 0.618037 0.011565)
(0.00648199 0.618037 0.0119029)
(0.00588062 0.618037 0.0122112)
(0.00526463 0.618037 0.0124892)
(0.00463555 0.618037 0.0127361)
(0.00399495 0.618037 0.0129513)
(0.00334441 0.618037 0.0131343)
(0.00268556 0.618037 0.0132847)
(0.00202003 0.618037 0.0134021)
(0.00134949 0.618037 0.0134861)
(0.000675583 0.618037 0.0135366)
(0.000675583 0.56816 0.0135366)
(0.00134949 0.56816 0.0134861)
(0.00202003 0.56816 0.0134021)
(0.00268556 0.56816 0.0132847)
(0.00334441 0.56816 0.0131343)
(0.00399495 0.56816 0.0129513)
(0.00463555 0.56816 0.0127361)
(0.00526463 0.56816 0.0124892)
(0.00588062 0.56816 0.0122112)
(0.00648199 0.56816 0.0119029)
(0.00706724 0.56816 0.011565)
(0.00763492 0.56816 0.0111984)
(0.00818363 0.56816 0.0108039)
(0.00871198 0.56816 0.0103825)
(0.00921868 0.56816 0.00993537)
(0.00970246 0.56816 0.00946351)
(0.0101621 0.56816 0.00896812)
(0.0105965 0.56816 0.00845043)
(0.0110046 0.56816 0.00791173)
(0.0113852 0.56816 0.00735337)
(0.0117376 0.56816 0.00677672)
(0.0120608 0.56816 0.00618322)
(0.012354 0.56816 0.00557435)
(0.0126165 0.56816 0.00495163)
(0.0128477 0.56816 0.00431659)
(0.0130469 0.56816 0.00367082)
(0.0132136 0.56816 0.00301592)
(0.0133475 0.56816 0.00235353)
(0.0134482 0.56816 0.00168529)
(0.0135155 0.56816 0.00101285)
(0.0135492 0.56816 0.000337897)
(0.0135492 0.56816 -0.000337897)
(0.0135155 0.56816 -0.00101285)
(0.0134482 0.56816 -0.00168529)
(0.0133475 0.56816 -0.00235353)
(0.0132136 0.56816 -0.00301592)
(0.0130469 0.56816 -0.00367082)
(0.0128477 0.56816 -0.00431659)
(0.0126165 0.56816 -0.00495163)
(0.012354 0.56816 -0.00557435)
(0.0120608 0.56816 -0.00618322)
(0.0117376 0.56816 -0.00677672)
(0.0113852 0.56816 -0.00735337)
(0.0110046 0.56816 -0.00791173)
(0.0105965 0.56816 -0.00845043)
(0.0101621 0.56816 -0.00896812)
(0.00970246 0.56816 -0.00946351)
(0.00921868 0.56816 -0.00993537)
(0.00871198 0.56816 -0.0103825)
(0.00818363 0.56816 -0.0108039)
(0.00763492 0.56816 -0.0111984)
(0.00706724 0.56816 -0.011565)
(0.00648199 0.56816 -0.0119029)
(0.00588062 0.56816 -0.0122112)
(0.00526463 0.56816 -0.0124892)
(0.00463555 0.56816 -0.0127361)
(0.00399495 0.56816 -0.0129513)
(0.00334441 0.56816 -0.0131343)
(0.00268556 0.56816 -0.0132847)
(0.00202003 0.56816 -0.0134021)
(0.00134949 0.56816 -0.0134861)
(0.000675583 0.56816 -0.0135366)
(-4.64917e-17 0.56816 -0.0135534)
(-0.000675583 0.56816 -0.0135366)
(-0.00134949 0.56816 -0.0134861)
(-0.00202003 0.56816 -0.0134021)
(-0.00268556 0.56816 -0.0132847)
(-0.00334441 0.56816 -0.0131343)
(-0.00399495 0.56816 -0.0129513)
(-0.00463555 0.56816 -0.0127361)
(-0.00526463 0.56816 -0.0124892)
(-0.00588062 0.56816 -0.0122112)
(-0.00648199 0.56816 -0.0119029)
(-0.00706724 0.56816 -0.011565)
(-0.00763492 0.56816 -0.0111984)
(-0.00818363 0.56816 -0.0108039)
(-0.00871198 0.56816 -0.0103825)
(-0.00921868 0.56816 -0.00993537)
(-0.00970246 0.56816 -0.00946351)
(-0.0101621 0.56816 -0.00896812)
(-0.0105965 0.56816 -0.00845043)
(-0.0110046 0.56816 -0.00791173)
(-0.0113852 0.56816 -0.00735337)
(-0.0117376 0.56816 -0.00677672)
(-0.0120608 0.56816 -0.00618322)
(-0.012354 0.56816 -0.00557435)
(-0.0126165 0.56816 -0.00495163)
(-0.0128477 0.56816 -0.00431659)
(-0.0130469 0.56816 -0.00367082)
(-0.0132136 0.56816 -0.00301592)
(-0.0133475 0.56816 -0.00235353)
(-0.0134482 0.56816 -0.00168529)
(-0.0135155 0.56816 -0.00101285)
(-0.0135492 0.56816 -0.000337897)
(-0.0135492 0.56816 0.000337897)
(-0.0135155 0.56816 0.00101285)
(-0.0134482 0.56816 0.00168529)
(-0.0133475 0.56816 0.00235353)
(-0.0132136 0.56816 0.00301592)
(-0.0130469 0.56816 0.00367082)
(-0.0128477 0.56816 0.00431659)
(-0.0126165 0.56816 0.00495163)
(-0.012354 0.56816 0.00557435)
(-0.0120608 0.56816 0.00618322)
(-0.0117376 0.56816 0.00677672)
(-0.0113852 0.56816 0.00735337)
(-0.0110046 0.56816 0.00791173)
(-0.0105965 0.56816 0.00845043)
(-0.0101621 0.56816 0.00896812)
(-0.00970246 0.56816 0.00946351)
(-0.00921868 0.56816 0.00993537)
(-0.00871198 0.56816 0.0103825)
(-0.00818363 0.56816 0.0108039)
(-0.00763492 0.56816 0.0111984)
(-0.00706724 0.56816 0.011565)
(-0.00648199 0.56816 0.0119029)
(-0.00588062 0.56816 0.0122112)
(-0.00526463 0.56816 0.0124892)
(-0.00463555 0.56816 0.0127361)
(-0.00399495 0.56816 0.0129513)
(-0.00334441 0.56816 0.0131343)
(-0.00268556 0.56816 0.0132847)
(-0.00202003 0.56816 0.0134021)
(-0.00134949 0.56816 0.0134861)
(0.0101214 0.547957 0.00901408)
(0.00996194 0.548914 0.00918997)
(0.0104701 0.547549 0.00860654)
(0.0107986 0.547134 0.00819065)
(0.011107 0.54671 0.00776719)
(0.0113959 0.54628 0.00733685)
(0.0116654 0.545843 0.00690029)
(0.0119159 0.545401 0.0064581)
(0.0121477 0.544954 0.00601083)
(0.012361 0.544502 0.00555899)
(0.0125561 0.544046 0.00510305)
(0.0127332 0.543586 0.00464346)
(0.0128926 0.543124 0.00418063)
(0.0130344 0.542658 0.00371496)
(0.0131588 0.54219 0.0032468)
(0.013266 0.541719 0.00277652)
(0.0133561 0.541247 0.00230445)
(0.0134292 0.540774 0.00183091)
(0.0134854 0.540299 0.00135621)
(0.0135248 0.539824 0.000880676)
(0.0135474 0.539348 0.000404592)
(0.0135532 0.538871 -7.17433e-05)
(0.0135424 0.538395 -0.000548034)
(0.0135147 0.537919 -0.00102398)
(0.0134703 0.537444 -0.0014993)
(0.013409 0.536969 -0.00197368)
(0.0133308 0.536496 -0.00244681)
(0.0132355 0.536025 -0.00291838)
(0.0131231 0.535555 -0.00338805)
(0.0129935 0.535088 -0.0038555)
(0.0128464 0.534623 -0.00432036)
(0.0126817 0.534161 -0.00478225)
(0.0124992 0.533702 -0.00524079)
(0.0122986 0.533247 -0.00569554)
(0.0120798 0.532797 -0.00614605)
(0.0118424 0.532351 -0.00659185)
(0.0115862 0.531911 -0.00703241)
(0.0111319 0.532027 -0.00773154)
(0.0109481 0.53258 -0.00798969)
(0.0107596 0.533134 -0.0082417)
(0.0105667 0.533689 -0.00848766)
(0.0103694 0.534245 -0.00872764)
(0.0101678 0.534803 -0.00896172)
(0.00996194 0.535361 -0.00918997)
(0.0101214 0.536318 -0.00901408)
(0.0104701 0.536726 -0.00860654)
(0.0107986 0.537142 -0.00819065)
(0.011107 0.537565 -0.00776719)
(0.0113959 0.537995 -0.00733685)
(0.0116654 0.538432 -0.00690029)
(0.0119159 0.538874 -0.0064581)
(0.0121477 0.539321 -0.00601083)
(0.012361 0.539773 -0.00555899)
(0.0125561 0.540229 -0.00510305)
(0.0127332 0.540689 -0.00464346)
(0.0128926 0.541152 -0.00418063)
(0.0130344 0.541617 -0.00371496)
(0.0131588 0.542085 -0.0032468)
(0.013266 0.542556 -0.00277652)
(0.0133561 0.543028 -0.00230445)
(0.0134292 0.543501 -0.00183091)
(0.0134854 0.543976 -0.00135621)
(0.0135248 0.544451 -0.000880676)
(0.0135474 0.544928 -0.000404592)
(0.0135532 0.545404 7.17433e-05)
(0.0135424 0.54588 0.000548034)
(0.0135147 0.546356 0.00102398)
(0.0134703 0.546831 0.0014993)
(0.013409 0.547306 0.00197368)
(0.0133308 0.547779 0.00244681)
(0.0132355 0.54825 0.00291838)
(0.0131231 0.54872 0.00338805)
(0.0129935 0.549188 0.0038555)
(0.0128464 0.549653 0.00432036)
(0.0126817 0.550114 0.00478225)
(0.0124992 0.550573 0.00524079)
(0.0122986 0.551028 0.00569554)
(0.0120798 0.551478 0.00614605)
(0.0118424 0.551924 0.00659185)
(0.0115862 0.552365 0.00703241)
(0.0111319 0.552248 0.00773154)
(0.0109481 0.551695 0.00798969)
(0.0107596 0.551141 0.0082417)
(0.0105667 0.550586 0.00848766)
(0.0103694 0.55003 0.00872764)
(0.0101678 0.549473 0.00896172)
(0.00274574 0.547957 -0.0132724)
(0.00297777 0.548914 -0.0132223)
(0.00221842 0.547549 -0.0133706)
(0.00169403 0.547134 -0.0134472)
(0.00117306 0.54671 -0.0135026)
(0.000655954 0.54628 -0.0135376)
(0.000143122 0.545843 -0.0135527)
(-0.000365074 0.545401 -0.0135485)
(-0.000868301 0.544954 -0.0135256)
(-0.00136626 0.544502 -0.0134844)
(-0.00185866 0.544046 -0.0134254)
(-0.00234524 0.543586 -0.013349)
(-0.00282574 0.543124 -0.0132556)
(-0.00329994 0.542658 -0.0131456)
(-0.00376759 0.54219 -0.0130192)
(-0.00422846 0.541719 -0.012877)
(-0.00468234 0.541247 -0.0127189)
(-0.00512899 0.540774 -0.0125455)
(-0.00556819 0.540299 -0.0123568)
(-0.00599971 0.539824 -0.0121532)
(-0.00642331 0.539348 -0.0119347)
(-0.00683876 0.538871 -0.0117016)
(-0.00724579 0.538395 -0.011454)
(-0.00764415 0.537919 -0.0111921)
(-0.00803356 0.537444 -0.0109159)
(-0.00841374 0.536969 -0.0106257)
(-0.00878437 0.536496 -0.0103214)
(-0.00914514 0.536025 -0.0100031)
(-0.00949571 0.535555 -0.00967095)
(-0.00983571 0.535088 -0.00932494)
(-0.0101647 0.534623 -0.00896514)
(-0.0104824 0.534161 -0.00859156)
(-0.0107882 0.533702 -0.00820423)
(-0.0110818 0.533247 -0.00780317)
(-0.0113625 0.532797 -0.00738839)
(-0.0116299 0.532351 -0.00695992)
(-0.0118834 0.531911 -0.00651778)
(-0.0122617 0.532027 -0.00577473)
(-0.0123933 0.53258 -0.00548647)
(-0.0125173 0.533134 -0.00519728)
(-0.0126339 0.533689 -0.00490721)
(-0.0127431 0.534245 -0.00461632)
(-0.012845 0.534803 -0.00432468)
(-0.0128671 0.536318 -0.00425832)
(-0.0129397 0.535361 -0.00403231)
(-0.0126885 0.536726 -0.00476411)
(-0.0124926 0.537142 -0.0052565)
(-0.0122801 0.537565 -0.00573539)
(-0.0120518 0.537995 -0.00620071)
(-0.0118085 0.538432 -0.00665239)
(-0.0115508 0.538874 -0.00709042)
(-0.0112794 0.539321 -0.00751477)
(-0.0109947 0.539773 -0.00792541)
(-0.0106974 0.540229 -0.00832234)
(-0.0103879 0.540689 -0.00870553)
(-0.0100668 0.541152 -0.00907497)
(-0.00973443 0.541617 -0.00943062)
(-0.00939121 0.542085 -0.00977246)
(-0.00903753 0.542556 -0.0101004)
(-0.00867376 0.543028 -0.0104145)
(-0.00830021 0.543501 -0.0107146)
(-0.00791722 0.543976 -0.0110006)
(-0.00752509 0.544451 -0.0112725)
(-0.00712409 0.544928 -0.0115301)
(-0.00671449 0.545404 -0.0117733)
(-0.00629657 0.54588 -0.012002)
(-0.00587055 0.546356 -0.0122161)
(-0.0054367 0.546831 -0.0124152)
(-0.00499523 0.547306 -0.0125993)
(-0.00454638 0.547779 -0.0127682)
(-0.00409037 0.54825 -0.0129215)
(-0.00362743 0.54872 -0.013059)
(-0.00315778 0.549188 -0.0131804)
(-0.00268166 0.549653 -0.0132855)
(-0.0021993 0.550114 -0.0133738)
(-0.00171094 0.550573 -0.013445)
(-0.00121684 0.551028 -0.0134987)
(-0.000717264 0.551478 -0.0135344)
(-0.000212507 0.551924 -0.0135518)
(0.000297121 0.552365 -0.0135502)
(0.00112977 0.552248 -0.0135063)
(0.00144524 0.551695 -0.0134762)
(0.0017577 0.551141 -0.013439)
(0.00206717 0.550586 -0.0133949)
(0.00237367 0.55003 -0.013344)
(0.0026772 0.549473 -0.0132864)
)


// edges:

776
(
(12 13)
(14 15)
(15 16)
(17 18)
(19 20)
(21 22)
(23 24)
(25 26)
(27 28)
(29 30)
(31 32)
(33 34)
(35 36)
(37 38)
(39 40)
(41 42)
(43 44)
(45 46)
(47 48)
(49 50)
(51 52)
(53 54)
(55 56)
(57 58)
(59 60)
(61 62)
(63 64)
(65 66)
(67 68)
(69 70)
(71 72)
(73 74)
(75 76)
(77 78)
(79 80)
(81 82)
(83 84)
(85 86)
(87 88)
(89 90)
(91 92)
(93 94)
(95 96)
(97 98)
(99 100)
(101 102)
(103 104)
(105 106)
(107 108)
(109 110)
(111 112)
(113 114)
(115 116)
(117 118)
(119 120)
(121 122)
(123 124)
(125 126)
(127 128)
(129 130)
(131 132)
(133 134)
(135 136)
(137 138)
(139 14)
(13 140)
(140 141)
(142 143)
(144 145)
(146 147)
(148 149)
(150 151)
(152 153)
(154 155)
(156 157)
(158 159)
(160 161)
(162 163)
(164 165)
(166 167)
(168 169)
(170 171)
(172 173)
(174 175)
(176 177)
(178 179)
(180 181)
(182 183)
(184 185)
(186 187)
(188 189)
(190 191)
(192 193)
(194 195)
(196 197)
(198 199)
(200 201)
(202 203)
(204 205)
(206 207)
(208 209)
(210 211)
(212 213)
(214 215)
(216 217)
(218 219)
(220 221)
(222 223)
(224 225)
(226 227)
(228 229)
(230 231)
(232 233)
(234 235)
(236 237)
(238 239)
(240 241)
(242 243)
(244 245)
(246 247)
(248 249)
(250 251)
(252 253)
(254 255)
(256 257)
(258 259)
(260 261)
(262 263)
(16 17)
(18 19)
(20 21)
(22 23)
(24 25)
(26 27)
(28 29)
(30 31)
(32 33)
(34 35)
(36 37)
(38 39)
(40 41)
(42 43)
(44 45)
(46 47)
(48 49)
(50 51)
(52 53)
(54 55)
(56 57)
(58 59)
(60 61)
(62 63)
(64 65)
(66 67)
(68 69)
(70 71)
(72 73)
(74 75)
(76 77)
(78 79)
(80 81)
(82 83)
(84 85)
(86 87)
(88 89)
(90 91)
(92 93)
(94 95)
(96 97)
(98 99)
(100 101)
(102 103)
(104 105)
(106 107)
(108 109)
(110 111)
(112 113)
(114 115)
(116 117)
(118 119)
(120 121)
(122 123)
(124 125)
(126 127)
(128 129)
(130 131)
(132 133)
(134 135)
(136 137)
(138 139)
(141 142)
(143 144)
(145 146)
(147 148)
(149 150)
(151 152)
(153 154)
(155 156)
(157 158)
(159 160)
(161 162)
(163 164)
(165 166)
(167 168)
(169 170)
(171 172)
(173 174)
(175 176)
(177 178)
(179 180)
(181 182)
(183 184)
(185 186)
(187 188)
(189 190)
(191 192)
(193 194)
(195 196)
(197 198)
(199 200)
(201 202)
(203 204)
(205 206)
(207 208)
(209 210)
(211 212)
(213 214)
(215 216)
(217 218)
(219 220)
(221 222)
(223 224)
(225 226)
(227 228)
(229 230)
(231 232)
(233 234)
(235 236)
(237 238)
(239 240)
(241 242)
(243 244)
(245 246)
(247 248)
(249 250)
(251 252)
(253 254)
(255 256)
(257 258)
(259 260)
(261 262)
(263 12)
(0 264)
(265 0)
(264 266)
(267 268)
(269 270)
(271 272)
(273 274)
(275 276)
(277 278)
(279 280)
(281 282)
(283 284)
(285 286)
(287 288)
(289 290)
(291 292)
(293 294)
(295 296)
(297 298)
(299 300)
(301 302)
(303 304)
(305 306)
(307 308)
(309 310)
(311 312)
(313 314)
(315 316)
(317 318)
(319 320)
(321 322)
(323 324)
(325 326)
(327 328)
(329 330)
(331 1)
(1 332)
(332 333)
(334 335)
(336 337)
(266 267)
(268 269)
(270 271)
(272 273)
(274 275)
(276 277)
(278 279)
(280 281)
(282 283)
(284 285)
(286 287)
(288 289)
(290 291)
(292 293)
(294 295)
(296 297)
(298 299)
(306 307)
(302 303)
(304 305)
(308 309)
(310 311)
(312 313)
(314 315)
(316 317)
(318 319)
(320 321)
(322 323)
(324 325)
(326 327)
(328 329)
(330 331)
(333 334)
(335 336)
(337 265)
(338 301)
(300 339)
(339 2)
(2 340)
(340 341)
(341 342)
(343 344)
(345 346)
(346 3)
(3 347)
(347 348)
(348 349)
(350 351)
(344 345)
(342 343)
(349 350)
(351 338)
(352 353)
(354 355)
(355 356)
(357 358)
(359 360)
(361 362)
(363 364)
(365 366)
(367 368)
(369 370)
(371 372)
(373 374)
(375 376)
(377 378)
(379 380)
(381 382)
(383 384)
(385 386)
(387 388)
(389 390)
(391 392)
(393 394)
(395 396)
(397 398)
(399 400)
(401 402)
(403 404)
(405 406)
(407 408)
(409 410)
(411 412)
(413 414)
(415 416)
(417 418)
(419 420)
(421 422)
(423 424)
(425 426)
(427 428)
(429 430)
(431 432)
(433 434)
(435 436)
(437 438)
(439 440)
(441 442)
(443 444)
(445 446)
(447 448)
(449 450)
(451 452)
(453 454)
(455 456)
(457 458)
(459 460)
(461 462)
(463 464)
(465 466)
(467 468)